version 3
run binomialCQI-200-20231215-11:28:44-19652
attr configname binomialCQI
attr datetime 20231215-11:28:44
attr datetimef 20231215-112844
attr experiment binomialCQI
attr inifile omnetpp.ini
attr iterationvars "$simulationTime=70s, $nUser=200, $lambda=25"
attr iterationvarsd simulationTime=70s/nUser=200/lambda=25
attr iterationvarsf simulationTime=70s,nUser=200,lambda=25-
attr measurement "$simulationTime=70s, $nUser=200, $lambda=25"
attr network Network
attr processid 19652
attr repetition 0
attr replication #0
attr resultdir results
attr runnumber 200
attr seedset 0
itervar lambda 25
itervar nUser 200
itervar simulationTime 70s
config **.Users[*].CQIdistribution "\"binomial\""
config network Network
config cpu-time-limit 60s
config sim-time-limit 70s
config num-rngs 600
config repeat 10
config seed-set 0
config **.NUM_USER 200
config **.LAMBDA 25
config **.CQIArrayLength 15
config **.CQIValues "\" 3 3 6 11 15 20 25 36 39 50 63 72 80 93 93 \""
config **.frameSize 25
config **.timeSlot 0.1

par Network.BS typename "\"pecsn_project.BaseStation\""
par Network.BS CQIValues "\" 3 3 6 11 15 20 25 36 39 50 63 72 80 93 93 \""
par Network.BS CQIArrayLength 15
par Network.BS frameSize 25
par Network.BS timeSlot 0.1
statistic Network.BS simFrameStat:stats
field count 700
field mean 24.964285714286
field stddev 0.94491118252308
field min 0
field max 25
field sum 17475
field sqrsum 436875
attr "" ""
attr recordingmode stats
attr source simFrame
attr title "Occupied frame slots"
par Network.Users[0] typename "\"pecsn_project.User\""
par Network.Users[0] CQIdistribution "\"binomial\""
statistic Network.Users[0] throughputStat:stats
field count 700
field mean 0.078571428571429
field stddev 2.0788046015507
field min 0
field max 55
field sum 55
field sqrsum 3025
attr "" ""
attr recordingmode stats
attr source throughput
attr title Throughput
statistic Network.Users[0] packetsReceivedStat:stats
field count 700
field mean 0.0071428571428571
field stddev 0.18898223650461
field min 0
field max 5
field sum 5
field sqrsum 25
attr "" ""
attr recordingmode stats
attr source packetsReceived
attr title "Packets received per timeslot"
statistic Network.Users[0] packetDelayStat:stats
field count 5
field mean 0.0442552553118
field stddev 0.029002078316853
field min 0.001955177617
field max 0.082021419549
field sum 0.221276276559
field sqrsum 0.01315712030035
attr "" ""
attr recordingmode stats
attr source packetDelay
attr title "Packet delay"
par Network.Users[1] typename "\"pecsn_project.User\""
par Network.Users[1] CQIdistribution "\"binomial\""
statistic Network.Users[1] throughputStat:stats
field count 700
field mean 0.02
field stddev 0.52915026221292
field min 0
field max 14
field sum 14
field sqrsum 196
attr "" ""
attr recordingmode stats
attr source throughput
attr title Throughput
statistic Network.Users[1] packetsReceivedStat:stats
field count 700
field mean 0.0028571428571429
field stddev 0.075592894601845
field min 0
field max 2
field sum 2
field sqrsum 4
attr "" ""
attr recordingmode stats
attr source packetsReceived
attr title "Packets received per timeslot"
statistic Network.Users[1] packetDelayStat:stats
field count 2
field mean 0.1800819904335
field stddev 0.021327448424684
field min 0.165001207027
field max 0.19516277384
field sum 0.360163980867
field sqrsum 0.06531390661329
attr "" ""
attr recordingmode stats
attr source packetDelay
attr title "Packet delay"
par Network.Users[2] typename "\"pecsn_project.User\""
par Network.Users[2] CQIdistribution "\"binomial\""
statistic Network.Users[2] throughputStat:stats
field count 700
field mean 0.074285714285714
field stddev 1.7530423759971
field min 0
field max 46
field sum 52
field sqrsum 2152
attr "" ""
attr recordingmode stats
attr source throughput
attr title Throughput
statistic Network.Users[2] packetsReceivedStat:stats
field count 700
field mean 0.0085714285714286
field stddev 0.19267179291055
field min 0
field max 5
field sum 6
field sqrsum 26
attr "" ""
attr recordingmode stats
attr source packetsReceived
attr title "Packets received per timeslot"
statistic Network.Users[2] packetDelayStat:stats
field count 6
field mean 0.18516334977867
field stddev 0.098222335922043
field min 0.057517273379
field max 0.286433106354
field sum 1.110980098672
field sqrsum 0.25395093297745
attr "" ""
attr recordingmode stats
attr source packetDelay
attr title "Packet delay"
par Network.Users[3] typename "\"pecsn_project.User\""
par Network.Users[3] CQIdistribution "\"binomial\""
statistic Network.Users[3] throughputStat:stats
field count 700
field mean 0.035714285714286
field stddev 0.94491118252307
field min 0
field max 25
field sum 25
field sqrsum 625
attr "" ""
attr recordingmode stats
attr source throughput
attr title Throughput
statistic Network.Users[3] packetsReceivedStat:stats
field count 700
field mean 0.0057142857142857
field stddev 0.15118578920369
field min 0
field max 4
field sum 4
field sqrsum 16
attr "" ""
attr recordingmode stats
attr source packetsReceived
attr title "Packets received per timeslot"
statistic Network.Users[3] packetDelayStat:stats
field count 4
field mean 0.1748901464385
field stddev 0.042115825761688
field min 0.121946939379
field max 0.224671301521
field sum 0.699560585754
field sqrsum 0.12766748162389
attr "" ""
attr recordingmode stats
attr source packetDelay
attr title "Packet delay"
par Network.Users[4] typename "\"pecsn_project.User\""
par Network.Users[4] CQIdistribution "\"binomial\""
statistic Network.Users[4] throughputStat:stats
field count 700
field mean 0.065714285714286
field stddev 1.4673251592025
field min 0
field max 38
field sum 46
field sqrsum 1508
attr "" ""
attr recordingmode stats
attr source throughput
attr title Throughput
statistic Network.Users[4] packetsReceivedStat:stats
field count 700
field mean 0.0085714285714286
field stddev 0.19267179291055
field min 0
field max 5
field sum 6
field sqrsum 26
attr "" ""
attr recordingmode stats
attr source packetsReceived
attr title "Packets received per timeslot"
statistic Network.Users[4] packetDelayStat:stats
field count 6
field mean 0.17446885849033
field stddev 0.063938758006641
field min 0.084184873567
field max 0.250703238756
field sum 1.046813150942
field sqrsum 0.20307711937468
attr "" ""
attr recordingmode stats
attr source packetDelay
attr title "Packet delay"
par Network.Users[5] typename "\"pecsn_project.User\""
par Network.Users[5] CQIdistribution "\"binomial\""
statistic Network.Users[5] throughputStat:stats
field count 700
field mean 0.075714285714286
field stddev 1.6404172429111
field min 0
field max 42
field sum 53
field sqrsum 1885
attr "" ""
attr recordingmode stats
attr source throughput
attr title Throughput
statistic Network.Users[5] packetsReceivedStat:stats
field count 700
field mean 0.01
field stddev 0.20343966356044
field min 0
field max 5
field sum 7
field sqrsum 29
attr "" ""
attr recordingmode stats
attr source packetsReceived
attr title "Packets received per timeslot"
statistic Network.Users[5] packetDelayStat:stats
field count 7
field mean 0.17067820988743
field stddev 0.099374011653797
field min 0.030554877446
field max 0.270983409084
field sum 1.194747469212
field sqrsum 0.26316852446565
attr "" ""
attr recordingmode stats
attr source packetDelay
attr title "Packet delay"
par Network.Users[6] typename "\"pecsn_project.User\""
par Network.Users[6] CQIdistribution "\"binomial\""
statistic Network.Users[6] throughputStat:stats
field count 700
field mean 0.055714285714286
field stddev 1.474061444736
field min 0
field max 39
field sum 39
field sqrsum 1521
attr "" ""
attr recordingmode stats
attr source throughput
attr title Throughput
statistic Network.Users[6] packetsReceivedStat:stats
field count 700
field mean 0.0071428571428571
field stddev 0.18898223650461
field min 0
field max 5
field sum 5
field sqrsum 25
attr "" ""
attr recordingmode stats
attr source packetsReceived
attr title "Packets received per timeslot"
statistic Network.Users[6] packetDelayStat:stats
field count 5
field mean 0.188796487517
field stddev 0.17644139186822
field min 0.045208304865
field max 0.477702576525
field sum 0.943982437585
field sqrsum 0.30274682755136
attr "" ""
attr recordingmode stats
attr source packetDelay
attr title "Packet delay"
par Network.Users[7] typename "\"pecsn_project.User\""
par Network.Users[7] CQIdistribution "\"binomial\""
statistic Network.Users[7] throughputStat:stats
field count 700
field mean 0.05
field stddev 1.3228756555323
field min 0
field max 35
field sum 35
field sqrsum 1225
attr "" ""
attr recordingmode stats
attr source throughput
attr title Throughput
statistic Network.Users[7] packetsReceivedStat:stats
field count 700
field mean 0.0057142857142857
field stddev 0.15118578920369
field min 0
field max 4
field sum 4
field sqrsum 16
attr "" ""
attr recordingmode stats
attr source packetsReceived
attr title "Packets received per timeslot"
statistic Network.Users[7] packetDelayStat:stats
field count 4
field mean 0.388742875345
field stddev 0.067434237030828
field min 0.307902420751
field max 0.472036218305
field sum 1.55497150138
field sqrsum 0.61812622149778
attr "" ""
attr recordingmode stats
attr source packetDelay
attr title "Packet delay"
par Network.Users[8] typename "\"pecsn_project.User\""
par Network.Users[8] CQIdistribution "\"binomial\""
statistic Network.Users[8] throughputStat:stats
field count 700
field mean 0
field stddev 0
field min 0
field max 0
field sum 0
field sqrsum 0
attr "" ""
attr recordingmode stats
attr source throughput
attr title Throughput
statistic Network.Users[8] packetsReceivedStat:stats
field count 700
field mean 0
field stddev 0
field min 0
field max 0
field sum 0
field sqrsum 0
attr "" ""
attr recordingmode stats
attr source packetsReceived
attr title "Packets received per timeslot"
statistic Network.Users[8] packetDelayStat:stats
field count 0
field mean nan
field stddev nan
field min nan
field max nan
field sum 0
field sqrsum 0
attr "" ""
attr recordingmode stats
attr source packetDelay
attr title "Packet delay"
par Network.Users[9] typename "\"pecsn_project.User\""
par Network.Users[9] CQIdistribution "\"binomial\""
statistic Network.Users[9] throughputStat:stats
field count 700
field mean 0
field stddev 0
field min 0
field max 0
field sum 0
field sqrsum 0
attr "" ""
attr recordingmode stats
attr source throughput
attr title Throughput
statistic Network.Users[9] packetsReceivedStat:stats
field count 700
field mean 0
field stddev 0
field min 0
field max 0
field sum 0
field sqrsum 0
attr "" ""
attr recordingmode stats
attr source packetsReceived
attr title "Packets received per timeslot"
statistic Network.Users[9] packetDelayStat:stats
field count 0
field mean nan
field stddev nan
field min nan
field max nan
field sum 0
field sqrsum 0
attr "" ""
attr recordingmode stats
attr source packetDelay
attr title "Packet delay"
par Network.Users[10] typename "\"pecsn_project.User\""
par Network.Users[10] CQIdistribution "\"binomial\""
statistic Network.Users[10] throughputStat:stats
field count 700
field mean 0
field stddev 0
field min 0
field max 0
field sum 0
field sqrsum 0
attr "" ""
attr recordingmode stats
attr source throughput
attr title Throughput
statistic Network.Users[10] packetsReceivedStat:stats
field count 700
field mean 0
field stddev 0
field min 0
field max 0
field sum 0
field sqrsum 0
attr "" ""
attr recordingmode stats
attr source packetsReceived
attr title "Packets received per timeslot"
statistic Network.Users[10] packetDelayStat:stats
field count 0
field mean nan
field stddev nan
field min nan
field max nan
field sum 0
field sqrsum 0
attr "" ""
attr recordingmode stats
attr source packetDelay
attr title "Packet delay"
par Network.Users[11] typename "\"pecsn_project.User\""
par Network.Users[11] CQIdistribution "\"binomial\""
statistic Network.Users[11] throughputStat:stats
field count 700
field mean 0
field stddev 0
field min 0
field max 0
field sum 0
field sqrsum 0
attr "" ""
attr recordingmode stats
attr source throughput
attr title Throughput
statistic Network.Users[11] packetsReceivedStat:stats
field count 700
field mean 0
field stddev 0
field min 0
field max 0
field sum 0
field sqrsum 0
attr "" ""
attr recordingmode stats
attr source packetsReceived
attr title "Packets received per timeslot"
statistic Network.Users[11] packetDelayStat:stats
field count 0
field mean nan
field stddev nan
field min nan
field max nan
field sum 0
field sqrsum 0
attr "" ""
attr recordingmode stats
attr source packetDelay
attr title "Packet delay"
par Network.Users[12] typename "\"pecsn_project.User\""
par Network.Users[12] CQIdistribution "\"binomial\""
statistic Network.Users[12] throughputStat:stats
field count 700
field mean 0.16428571428571
field stddev 3.1785464558571
field min 0
field max 76
field sum 115
field sqrsum 7081
attr "" ""
attr recordingmode stats
attr source throughput
attr title Throughput
statistic Network.Users[12] packetsReceivedStat:stats
field count 700
field mean 0.027142857142857
field stddev 0.49385970118582
field min 0
field max 11
field sum 19
field sqrsum 171
attr "" ""
attr recordingmode stats
attr source packetsReceived
attr title "Packets received per timeslot"
statistic Network.Users[12] packetDelayStat:stats
field count 19
field mean 0.38628726895742
field stddev 0.12763031104985
field min 0.012691631241
field max 0.58210297113
field sum 7.339458110191
field sqrsum 3.1283501623894
attr "" ""
attr recordingmode stats
attr source packetDelay
attr title "Packet delay"
par Network.Users[13] typename "\"pecsn_project.User\""
par Network.Users[13] CQIdistribution "\"binomial\""
statistic Network.Users[13] throughputStat:stats
field count 700
field mean 0.05
field stddev 1.3228756555323
field min 0
field max 35
field sum 35
field sqrsum 1225
attr "" ""
attr recordingmode stats
attr source throughput
attr title Throughput
statistic Network.Users[13] packetsReceivedStat:stats
field count 700
field mean 0.0057142857142857
field stddev 0.15118578920369
field min 0
field max 4
field sum 4
field sqrsum 16
attr "" ""
attr recordingmode stats
attr source packetsReceived
attr title "Packets received per timeslot"
statistic Network.Users[13] packetDelayStat:stats
field count 4
field mean 0.60596814186275
field stddev 0.079254583034362
field min 0.524113119943
field max 0.690142154832
field sum 2.423872567451
field sqrsum 1.4876334226062
attr "" ""
attr recordingmode stats
attr source packetDelay
attr title "Packet delay"
par Network.Users[14] typename "\"pecsn_project.User\""
par Network.Users[14] CQIdistribution "\"binomial\""
statistic Network.Users[14] throughputStat:stats
field count 700
field mean 0.12285714285714
field stddev 2.7131414112036
field min 0
field max 70
field sum 86
field sqrsum 5156
attr "" ""
attr recordingmode stats
attr source throughput
attr title Throughput
statistic Network.Users[14] packetsReceivedStat:stats
field count 700
field mean 0.018571428571429
field stddev 0.37205413528555
field min 0
field max 9
field sum 13
field sqrsum 97
attr "" ""
attr recordingmode stats
attr source packetsReceived
attr title "Packets received per timeslot"
statistic Network.Users[14] packetDelayStat:stats
field count 13
field mean 0.49567324719962
field stddev 0.10240659517079
field min 0.355679481926
field max 0.698022135694
field sum 6.443752213595
field sqrsum 3.319840912676
attr "" ""
attr recordingmode stats
attr source packetDelay
attr title "Packet delay"
par Network.Users[15] typename "\"pecsn_project.User\""
par Network.Users[15] CQIdistribution "\"binomial\""
statistic Network.Users[15] throughputStat:stats
field count 700
field mean 0
field stddev 0
field min 0
field max 0
field sum 0
field sqrsum 0
attr "" ""
attr recordingmode stats
attr source throughput
attr title Throughput
statistic Network.Users[15] packetsReceivedStat:stats
field count 700
field mean 0
field stddev 0
field min 0
field max 0
field sum 0
field sqrsum 0
attr "" ""
attr recordingmode stats
attr source packetsReceived
attr title "Packets received per timeslot"
statistic Network.Users[15] packetDelayStat:stats
field count 0
field mean nan
field stddev nan
field min nan
field max nan
field sum 0
field sqrsum 0
attr "" ""
attr recordingmode stats
attr source packetDelay
attr title "Packet delay"
par Network.Users[16] typename "\"pecsn_project.User\""
par Network.Users[16] CQIdistribution "\"binomial\""
statistic Network.Users[16] throughputStat:stats
field count 700
field mean 0.17
field stddev 3.0924639582917
field min 0
field max 76
field sum 119
field sqrsum 6705
attr "" ""
attr recordingmode stats
attr source throughput
attr title Throughput
statistic Network.Users[16] packetsReceivedStat:stats
field count 700
field mean 0.024285714285714
field stddev 0.41534780030434
field min 0
field max 9
field sum 17
field sqrsum 121
attr "" ""
attr recordingmode stats
attr source packetsReceived
attr title "Packets received per timeslot"
statistic Network.Users[16] packetDelayStat:stats
field count 17
field mean 0.44442452513341
field stddev 0.21675560370606
field min 0.150715316586
field max 0.816519905633
field sum 7.555216927268
field sqrsum 4.1094515629887
attr "" ""
attr recordingmode stats
attr source packetDelay
attr title "Packet delay"
par Network.Users[17] typename "\"pecsn_project.User\""
par Network.Users[17] CQIdistribution "\"binomial\""
statistic Network.Users[17] throughputStat:stats
field count 700
field mean 0.15571428571429
field stddev 4.1198127558006
field min 0
field max 109
field sum 109
field sqrsum 11881
attr "" ""
attr recordingmode stats
attr source throughput
attr title Throughput
statistic Network.Users[17] packetsReceivedStat:stats
field count 700
field mean 0.017142857142857
field stddev 0.45355736761107
field min 0
field max 12
field sum 12
field sqrsum 144
attr "" ""
attr recordingmode stats
attr source packetsReceived
attr title "Packets received per timeslot"
statistic Network.Users[17] packetDelayStat:stats
field count 12
field mean 0.84891539809742
field stddev 0.12199667775414
field min 0.569168210467
field max 0.995622505617
field sum 10.186984777169
field sqrsum 8.8116033207363
attr "" ""
attr recordingmode stats
attr source packetDelay
attr title "Packet delay"
par Network.Users[18] typename "\"pecsn_project.User\""
par Network.Users[18] CQIdistribution "\"binomial\""
statistic Network.Users[18] throughputStat:stats
field count 700
field mean 0
field stddev 0
field min 0
field max 0
field sum 0
field sqrsum 0
attr "" ""
attr recordingmode stats
attr source throughput
attr title Throughput
statistic Network.Users[18] packetsReceivedStat:stats
field count 700
field mean 0
field stddev 0
field min 0
field max 0
field sum 0
field sqrsum 0
attr "" ""
attr recordingmode stats
attr source packetsReceived
attr title "Packets received per timeslot"
statistic Network.Users[18] packetDelayStat:stats
field count 0
field mean nan
field stddev nan
field min nan
field max nan
field sum 0
field sqrsum 0
attr "" ""
attr recordingmode stats
attr source packetDelay
attr title "Packet delay"
par Network.Users[19] typename "\"pecsn_project.User\""
par Network.Users[19] CQIdistribution "\"binomial\""
statistic Network.Users[19] throughputStat:stats
field count 700
field mean 0.23428571428571
field stddev 4.3018406319155
field min 0
field max 82
field sum 164
field sqrsum 12974
attr "" ""
attr recordingmode stats
attr source throughput
attr title Throughput
statistic Network.Users[19] packetsReceivedStat:stats
field count 700
field mean 0.034285714285714
field stddev 0.62055531785152
field min 0
field max 13
field sum 24
field sqrsum 270
attr "" ""
attr recordingmode stats
attr source packetsReceived
attr title "Packets received per timeslot"
statistic Network.Users[19] packetDelayStat:stats
field count 24
field mean 0.72236409268179
field stddev 0.30811860439085
field min 0.045635203844
field max 1.094194353291
field sum 17.336738224363
field sqrsum 14.706989888054
attr "" ""
attr recordingmode stats
attr source packetDelay
attr title "Packet delay"
par Network.Users[20] typename "\"pecsn_project.User\""
par Network.Users[20] CQIdistribution "\"binomial\""
statistic Network.Users[20] throughputStat:stats
field count 700
field mean 0.11142857142857
field stddev 2.8734163571286
field min 0
field max 76
field sum 78
field sqrsum 5780
attr "" ""
attr recordingmode stats
attr source throughput
attr title Throughput
statistic Network.Users[20] packetsReceivedStat:stats
field count 700
field mean 0.012857142857143
field stddev 0.30467104076685
field min 0
field max 8
field sum 9
field sqrsum 65
attr "" ""
attr recordingmode stats
attr source packetsReceived
attr title "Packets received per timeslot"
statistic Network.Users[20] packetDelayStat:stats
field count 9
field mean 1.1434721285816
field stddev 0.080136641657563
field min 1.024692078857
field max 1.258704577784
field sum 10.291249157234
field sqrsum 11.819131630275
attr "" ""
attr recordingmode stats
attr source packetDelay
attr title "Packet delay"
par Network.Users[21] typename "\"pecsn_project.User\""
par Network.Users[21] CQIdistribution "\"binomial\""
statistic Network.Users[21] throughputStat:stats
field count 700
field mean 0
field stddev 0
field min 0
field max 0
field sum 0
field sqrsum 0
attr "" ""
attr recordingmode stats
attr source throughput
attr title Throughput
statistic Network.Users[21] packetsReceivedStat:stats
field count 700
field mean 0
field stddev 0
field min 0
field max 0
field sum 0
field sqrsum 0
attr "" ""
attr recordingmode stats
attr source packetsReceived
attr title "Packets received per timeslot"
statistic Network.Users[21] packetDelayStat:stats
field count 0
field mean nan
field stddev nan
field min nan
field max nan
field sum 0
field sqrsum 0
attr "" ""
attr recordingmode stats
attr source packetDelay
attr title "Packet delay"
par Network.Users[22] typename "\"pecsn_project.User\""
par Network.Users[22] CQIdistribution "\"binomial\""
statistic Network.Users[22] throughputStat:stats
field count 700
field mean 0
field stddev 0
field min 0
field max 0
field sum 0
field sqrsum 0
attr "" ""
attr recordingmode stats
attr source throughput
attr title Throughput
statistic Network.Users[22] packetsReceivedStat:stats
field count 700
field mean 0
field stddev 0
field min 0
field max 0
field sum 0
field sqrsum 0
attr "" ""
attr recordingmode stats
attr source packetsReceived
attr title "Packets received per timeslot"
statistic Network.Users[22] packetDelayStat:stats
field count 0
field mean nan
field stddev nan
field min nan
field max nan
field sum 0
field sqrsum 0
attr "" ""
attr recordingmode stats
attr source packetDelay
attr title "Packet delay"
par Network.Users[23] typename "\"pecsn_project.User\""
par Network.Users[23] CQIdistribution "\"binomial\""
statistic Network.Users[23] throughputStat:stats
field count 700
field mean 0
field stddev 0
field min 0
field max 0
field sum 0
field sqrsum 0
attr "" ""
attr recordingmode stats
attr source throughput
attr title Throughput
statistic Network.Users[23] packetsReceivedStat:stats
field count 700
field mean 0
field stddev 0
field min 0
field max 0
field sum 0
field sqrsum 0
attr "" ""
attr recordingmode stats
attr source packetsReceived
attr title "Packets received per timeslot"
statistic Network.Users[23] packetDelayStat:stats
field count 0
field mean nan
field stddev nan
field min nan
field max nan
field sum 0
field sqrsum 0
attr "" ""
attr recordingmode stats
attr source packetDelay
attr title "Packet delay"
par Network.Users[24] typename "\"pecsn_project.User\""
par Network.Users[24] CQIdistribution "\"binomial\""
statistic Network.Users[24] throughputStat:stats
field count 700
field mean 0
field stddev 0
field min 0
field max 0
field sum 0
field sqrsum 0
attr "" ""
attr recordingmode stats
attr source throughput
attr title Throughput
statistic Network.Users[24] packetsReceivedStat:stats
field count 700
field mean 0
field stddev 0
field min 0
field max 0
field sum 0
field sqrsum 0
attr "" ""
attr recordingmode stats
attr source packetsReceived
attr title "Packets received per timeslot"
statistic Network.Users[24] packetDelayStat:stats
field count 0
field mean nan
field stddev nan
field min nan
field max nan
field sum 0
field sqrsum 0
attr "" ""
attr recordingmode stats
attr source packetDelay
attr title "Packet delay"
par Network.Users[25] typename "\"pecsn_project.User\""
par Network.Users[25] CQIdistribution "\"binomial\""
statistic Network.Users[25] throughputStat:stats
field count 700
field mean 0
field stddev 0
field min 0
field max 0
field sum 0
field sqrsum 0
attr "" ""
attr recordingmode stats
attr source throughput
attr title Throughput
statistic Network.Users[25] packetsReceivedStat:stats
field count 700
field mean 0
field stddev 0
field min 0
field max 0
field sum 0
field sqrsum 0
attr "" ""
attr recordingmode stats
attr source packetsReceived
attr title "Packets received per timeslot"
statistic Network.Users[25] packetDelayStat:stats
field count 0
field mean nan
field stddev nan
field min nan
field max nan
field sum 0
field sqrsum 0
attr "" ""
attr recordingmode stats
attr source packetDelay
attr title "Packet delay"
par Network.Users[26] typename "\"pecsn_project.User\""
par Network.Users[26] CQIdistribution "\"binomial\""
statistic Network.Users[26] throughputStat:stats
field count 700
field mean 0
field stddev 0
field min 0
field max 0
field sum 0
field sqrsum 0
attr "" ""
attr recordingmode stats
attr source throughput
attr title Throughput
statistic Network.Users[26] packetsReceivedStat:stats
field count 700
field mean 0
field stddev 0
field min 0
field max 0
field sum 0
field sqrsum 0
attr "" ""
attr recordingmode stats
attr source packetsReceived
attr title "Packets received per timeslot"
statistic Network.Users[26] packetDelayStat:stats
field count 0
field mean nan
field stddev nan
field min nan
field max nan
field sum 0
field sqrsum 0
attr "" ""
attr recordingmode stats
attr source packetDelay
attr title "Packet delay"
par Network.Users[27] typename "\"pecsn_project.User\""
par Network.Users[27] CQIdistribution "\"binomial\""
statistic Network.Users[27] throughputStat:stats
field count 700
field mean 0.37571428571429
field stddev 9.8275682386949
field min 0
field max 260
field sum 263
field sqrsum 67609
attr "" ""
attr recordingmode stats
attr source throughput
attr title Throughput
statistic Network.Users[27] packetsReceivedStat:stats
field count 700
field mean 0.05
field stddev 1.2855808682508
field min 0
field max 34
field sum 35
field sqrsum 1157
attr "" ""
attr recordingmode stats
attr source packetsReceived
attr title "Packets received per timeslot"
statistic Network.Users[27] packetDelayStat:stats
field count 35
field mean 0.75821996260886
field stddev 0.44149590520973
field min 0.03608012694
field max 1.390299513083
field sum 26.53769869131
field sqrsum 26.748646476227
attr "" ""
attr recordingmode stats
attr source packetDelay
attr title "Packet delay"
par Network.Users[28] typename "\"pecsn_project.User\""
par Network.Users[28] CQIdistribution "\"binomial\""
statistic Network.Users[28] throughputStat:stats
field count 700
field mean 0
field stddev 0
field min 0
field max 0
field sum 0
field sqrsum 0
attr "" ""
attr recordingmode stats
attr source throughput
attr title Throughput
statistic Network.Users[28] packetsReceivedStat:stats
field count 700
field mean 0
field stddev 0
field min 0
field max 0
field sum 0
field sqrsum 0
attr "" ""
attr recordingmode stats
attr source packetsReceived
attr title "Packets received per timeslot"
statistic Network.Users[28] packetDelayStat:stats
field count 0
field mean nan
field stddev nan
field min nan
field max nan
field sum 0
field sqrsum 0
attr "" ""
attr recordingmode stats
attr source packetDelay
attr title "Packet delay"
par Network.Users[29] typename "\"pecsn_project.User\""
par Network.Users[29] CQIdistribution "\"binomial\""
statistic Network.Users[29] throughputStat:stats
field count 700
field mean 0.36857142857143
field stddev 7.0354618382984
field min 0
field max 167
field sum 258
field sqrsum 34694
attr "" ""
attr recordingmode stats
attr source throughput
attr title Throughput
statistic Network.Users[29] packetsReceivedStat:stats
field count 700
field mean 0.055714285714286
field stddev 1.0084245583703
field min 0
field max 22
field sum 39
field sqrsum 713
attr "" ""
attr recordingmode stats
attr source packetsReceived
attr title "Packets received per timeslot"
statistic Network.Users[29] packetDelayStat:stats
field count 39
field mean 0.65242656652344
field stddev 0.40996394191305
field min 0.017667780874
field max 1.395917583634
field sum 25.444636094414
field sqrsum 22.987433042935
attr "" ""
attr recordingmode stats
attr source packetDelay
attr title "Packet delay"
par Network.Users[30] typename "\"pecsn_project.User\""
par Network.Users[30] CQIdistribution "\"binomial\""
statistic Network.Users[30] throughputStat:stats
field count 700
field mean 0.29285714285714
field stddev 7.7482716966892
field min 0
field max 205
field sum 205
field sqrsum 42025
attr "" ""
attr recordingmode stats
attr source throughput
attr title Throughput
statistic Network.Users[30] packetsReceivedStat:stats
field count 700
field mean 0.042857142857143
field stddev 1.1338934190277
field min 0
field max 30
field sum 30
field sqrsum 900
attr "" ""
attr recordingmode stats
attr source packetsReceived
attr title "Packets received per timeslot"
statistic Network.Users[30] packetDelayStat:stats
field count 30
field mean 0.91939243902287
field stddev 0.46563134900477
field min 0.025267512436
field max 1.560121656515
field sum 27.581773170686
field sqrsum 31.646037750077
attr "" ""
attr recordingmode stats
attr source packetDelay
attr title "Packet delay"
par Network.Users[31] typename "\"pecsn_project.User\""
par Network.Users[31] CQIdistribution "\"binomial\""
statistic Network.Users[31] throughputStat:stats
field count 700
field mean 0.092857142857143
field stddev 2.45676907456
field min 0
field max 65
field sum 65
field sqrsum 4225
attr "" ""
attr recordingmode stats
attr source throughput
attr title Throughput
statistic Network.Users[31] packetsReceivedStat:stats
field count 700
field mean 0.011428571428571
field stddev 0.30237157840738
field min 0
field max 8
field sum 8
field sqrsum 64
attr "" ""
attr recordingmode stats
attr source packetsReceived
attr title "Packets received per timeslot"
statistic Network.Users[31] packetDelayStat:stats
field count 8
field mean 1.4530304782304
field stddev 0.049482601508525
field min 1.385937890095
field max 1.539162320177
field sum 11.624243825843
field sqrsum 16.907520260295
attr "" ""
attr recordingmode stats
attr source packetDelay
attr title "Packet delay"
par Network.Users[32] typename "\"pecsn_project.User\""
par Network.Users[32] CQIdistribution "\"binomial\""
statistic Network.Users[32] throughputStat:stats
field count 700
field mean 0.13714285714286
field stddev 3.3393724161988
field min 0
field max 88
field sum 96
field sqrsum 7808
attr "" ""
attr recordingmode stats
attr source throughput
attr title Throughput
statistic Network.Users[32] packetsReceivedStat:stats
field count 700
field mean 0.02
field stddev 0.4597069415432
field min 0
field max 12
field sum 14
field sqrsum 148
attr "" ""
attr recordingmode stats
attr source packetsReceived
attr title "Packets received per timeslot"
statistic Network.Users[32] packetDelayStat:stats
field count 14
field mean 1.476921084865
field stddev 0.095775586123768
field min 1.311370486815
field max 1.606489523174
field sum 20.67689518811
field sqrsum 30.657390990529
attr "" ""
attr recordingmode stats
attr source packetDelay
attr title "Packet delay"
par Network.Users[33] typename "\"pecsn_project.User\""
par Network.Users[33] CQIdistribution "\"binomial\""
statistic Network.Users[33] throughputStat:stats
field count 700
field mean 0
field stddev 0
field min 0
field max 0
field sum 0
field sqrsum 0
attr "" ""
attr recordingmode stats
attr source throughput
attr title Throughput
statistic Network.Users[33] packetsReceivedStat:stats
field count 700
field mean 0
field stddev 0
field min 0
field max 0
field sum 0
field sqrsum 0
attr "" ""
attr recordingmode stats
attr source packetsReceived
attr title "Packets received per timeslot"
statistic Network.Users[33] packetDelayStat:stats
field count 0
field mean nan
field stddev nan
field min nan
field max nan
field sum 0
field sqrsum 0
attr "" ""
attr recordingmode stats
attr source packetDelay
attr title "Packet delay"
par Network.Users[34] typename "\"pecsn_project.User\""
par Network.Users[34] CQIdistribution "\"binomial\""
statistic Network.Users[34] throughputStat:stats
field count 700
field mean 0.43142857142857
field stddev 11.339078021339
field min 0
field max 300
field sum 302
field sqrsum 90004
attr "" ""
attr recordingmode stats
attr source throughput
attr title Throughput
statistic Network.Users[34] packetsReceivedStat:stats
field count 700
field mean 0.054285714285714
field stddev 1.3989251662196
field min 0
field max 37
field sum 38
field sqrsum 1370
attr "" ""
attr recordingmode stats
attr source packetsReceived
attr title "Packets received per timeslot"
statistic Network.Users[34] packetDelayStat:stats
field count 38
field mean 0.83009982743487
field stddev 0.5329709519688
field min 0.006271306964
field max 1.772373270003
field sum 31.543793442525
field sqrsum 36.694644812055
attr "" ""
attr recordingmode stats
attr source packetDelay
attr title "Packet delay"
par Network.Users[35] typename "\"pecsn_project.User\""
par Network.Users[35] CQIdistribution "\"binomial\""
statistic Network.Users[35] throughputStat:stats
field count 700
field mean 0.047142857142857
field stddev 1.2472827609304
field min 0
field max 33
field sum 33
field sqrsum 1089
attr "" ""
attr recordingmode stats
attr source throughput
attr title Throughput
statistic Network.Users[35] packetsReceivedStat:stats
field count 700
field mean 0.0071428571428571
field stddev 0.18898223650461
field min 0
field max 5
field sum 5
field sqrsum 25
attr "" ""
attr recordingmode stats
attr source packetsReceived
attr title "Packets received per timeslot"
statistic Network.Users[35] packetDelayStat:stats
field count 5
field mean 1.5937743842488
field stddev 0.058015892095701
field min 1.554620712369
field max 1.693292120609
field sum 7.968871921244
field sqrsum 12.714047314381
attr "" ""
attr recordingmode stats
attr source packetDelay
attr title "Packet delay"
par Network.Users[36] typename "\"pecsn_project.User\""
par Network.Users[36] CQIdistribution "\"binomial\""
statistic Network.Users[36] throughputStat:stats
field count 700
field mean 0
field stddev 0
field min 0
field max 0
field sum 0
field sqrsum 0
attr "" ""
attr recordingmode stats
attr source throughput
attr title Throughput
statistic Network.Users[36] packetsReceivedStat:stats
field count 700
field mean 0
field stddev 0
field min 0
field max 0
field sum 0
field sqrsum 0
attr "" ""
attr recordingmode stats
attr source packetsReceived
attr title "Packets received per timeslot"
statistic Network.Users[36] packetDelayStat:stats
field count 0
field mean nan
field stddev nan
field min nan
field max nan
field sum 0
field sqrsum 0
attr "" ""
attr recordingmode stats
attr source packetDelay
attr title "Packet delay"
par Network.Users[37] typename "\"pecsn_project.User\""
par Network.Users[37] CQIdistribution "\"binomial\""
statistic Network.Users[37] throughputStat:stats
field count 700
field mean 0
field stddev 0
field min 0
field max 0
field sum 0
field sqrsum 0
attr "" ""
attr recordingmode stats
attr source throughput
attr title Throughput
statistic Network.Users[37] packetsReceivedStat:stats
field count 700
field mean 0
field stddev 0
field min 0
field max 0
field sum 0
field sqrsum 0
attr "" ""
attr recordingmode stats
attr source packetsReceived
attr title "Packets received per timeslot"
statistic Network.Users[37] packetDelayStat:stats
field count 0
field mean nan
field stddev nan
field min nan
field max nan
field sum 0
field sqrsum 0
attr "" ""
attr recordingmode stats
attr source packetDelay
attr title "Packet delay"
par Network.Users[38] typename "\"pecsn_project.User\""
par Network.Users[38] CQIdistribution "\"binomial\""
statistic Network.Users[38] throughputStat:stats
field count 700
field mean 0
field stddev 0
field min 0
field max 0
field sum 0
field sqrsum 0
attr "" ""
attr recordingmode stats
attr source throughput
attr title Throughput
statistic Network.Users[38] packetsReceivedStat:stats
field count 700
field mean 0
field stddev 0
field min 0
field max 0
field sum 0
field sqrsum 0
attr "" ""
attr recordingmode stats
attr source packetsReceived
attr title "Packets received per timeslot"
statistic Network.Users[38] packetDelayStat:stats
field count 0
field mean nan
field stddev nan
field min nan
field max nan
field sum 0
field sqrsum 0
attr "" ""
attr recordingmode stats
attr source packetDelay
attr title "Packet delay"
par Network.Users[39] typename "\"pecsn_project.User\""
par Network.Users[39] CQIdistribution "\"binomial\""
statistic Network.Users[39] throughputStat:stats
field count 700
field mean 0.62
field stddev 8.8965538006521
field min 0
field max 157
field sum 434
field sqrsum 55594
attr "" ""
attr recordingmode stats
attr source throughput
attr title Throughput
statistic Network.Users[39] packetsReceivedStat:stats
field count 700
field mean 0.075714285714286
field stddev 1.0365199442999
field min 0
field max 19
field sum 53
field sqrsum 755
attr "" ""
attr recordingmode stats
attr source packetsReceived
attr title "Packets received per timeslot"
statistic Network.Users[39] packetDelayStat:stats
field count 53
field mean 1.0755236517869
field stddev 0.56924308745033
field min 0.044093996307
field max 1.847907687537
field sum 57.002753544706
field sqrsum 78.15776967003
attr "" ""
attr recordingmode stats
attr source packetDelay
attr title "Packet delay"
par Network.Users[40] typename "\"pecsn_project.User\""
par Network.Users[40] CQIdistribution "\"binomial\""
statistic Network.Users[40] throughputStat:stats
field count 700
field mean 0.60428571428571
field stddev 11.302410085375
field min 0
field max 218
field sum 423
field sqrsum 89549
attr "" ""
attr recordingmode stats
attr source throughput
attr title Throughput
statistic Network.Users[40] packetsReceivedStat:stats
field count 700
field mean 0.077142857142857
field stddev 1.4579633263933
field min 0
field max 31
field sum 54
field sqrsum 1490
attr "" ""
attr recordingmode stats
attr source packetsReceived
attr title "Packets received per timeslot"
statistic Network.Users[40] packetDelayStat:stats
field count 54
field mean 1.0243411473643
field stddev 0.64303210554452
field min 0.025007770431
field max 2.186102346852
field sum 55.314421957671
field sqrsum 78.575823758246
attr "" ""
attr recordingmode stats
attr source packetDelay
attr title "Packet delay"
par Network.Users[41] typename "\"pecsn_project.User\""
par Network.Users[41] CQIdistribution "\"binomial\""
statistic Network.Users[41] throughputStat:stats
field count 700
field mean 0.64142857142857
field stddev 12.741122105997
field min 0
field max 305
field sum 449
field sqrsum 113761
attr "" ""
attr recordingmode stats
attr source throughput
attr title Throughput
statistic Network.Users[41] packetsReceivedStat:stats
field count 700
field mean 0.078571428571429
field stddev 1.5376433352258
field min 0
field max 36
field sum 55
field sqrsum 1657
attr "" ""
attr recordingmode stats
attr source packetsReceived
attr title "Packets received per timeslot"
statistic Network.Users[41] packetDelayStat:stats
field count 55
field mean 1.1662446804736
field stddev 0.6308046136515
field min 0.022178663708
field max 2.261824984833
field sum 64.143457426048
field sqrsum 96.29434688293
attr "" ""
attr recordingmode stats
attr source packetDelay
attr title "Packet delay"
par Network.Users[42] typename "\"pecsn_project.User\""
par Network.Users[42] CQIdistribution "\"binomial\""
statistic Network.Users[42] throughputStat:stats
field count 700
field mean 0.76285714285714
field stddev 13.609022205408
field min 0
field max 295
field sum 534
field sqrsum 129866
attr "" ""
attr recordingmode stats
attr source throughput
attr title Throughput
statistic Network.Users[42] packetsReceivedStat:stats
field count 700
field mean 0.098571428571429
field stddev 1.7522511870044
field min 0
field max 36
field sum 69
field sqrsum 2153
attr "" ""
attr recordingmode stats
attr source packetsReceived
attr title "Packets received per timeslot"
statistic Network.Users[42] packetDelayStat:stats
field count 69
field mean 1.4006514598724
field stddev 0.74355170893581
field min 0.052469903349
field max 2.37924282988
field sum 96.644950731193
field sqrsum 172.96099311351
attr "" ""
attr recordingmode stats
attr source packetDelay
attr title "Packet delay"
par Network.Users[43] typename "\"pecsn_project.User\""
par Network.Users[43] CQIdistribution "\"binomial\""
statistic Network.Users[43] throughputStat:stats
field count 700
field mean 0.91857142857143
field stddev 14.372738788201
field min 0
field max 283
field sum 643
field sqrsum 144987
attr "" ""
attr recordingmode stats
attr source throughput
attr title Throughput
statistic Network.Users[43] packetsReceivedStat:stats
field count 700
field mean 0.11285714285714
field stddev 1.7917647751883
field min 0
field max 37
field sum 79
field sqrsum 2253
attr "" ""
attr recordingmode stats
attr source packetsReceived
attr title "Packets received per timeslot"
statistic Network.Users[43] packetDelayStat:stats
field count 79
field mean 1.3344883101315
field stddev 0.7256737714286
field min 0.041280509987
field max 2.590690655892
field sum 105.42457650039
field sqrsum 181.7628538984
attr "" ""
attr recordingmode stats
attr source packetDelay
attr title "Packet delay"
par Network.Users[44] typename "\"pecsn_project.User\""
par Network.Users[44] CQIdistribution "\"binomial\""
statistic Network.Users[44] throughputStat:stats
field count 700
field mean 0.78285714285714
field stddev 14.593833054162
field min 0
field max 363
field sum 548
field sqrsum 149302
attr "" ""
attr recordingmode stats
attr source throughput
attr title Throughput
statistic Network.Users[44] packetsReceivedStat:stats
field count 700
field mean 0.1
field stddev 1.8525781440159
field min 0
field max 46
field sum 70
field sqrsum 2406
attr "" ""
attr recordingmode stats
attr source packetsReceived
attr title "Packets received per timeslot"
statistic Network.Users[44] packetDelayStat:stats
field count 70
field mean 1.5211899989634
field stddev 0.84113143436296
field min 0.04284780856
field max 2.786262191296
field sum 106.48329992744
field sqrsum 210.79897510751
attr "" ""
attr recordingmode stats
attr source packetDelay
attr title "Packet delay"
par Network.Users[45] typename "\"pecsn_project.User\""
par Network.Users[45] CQIdistribution "\"binomial\""
statistic Network.Users[45] throughputStat:stats
field count 700
field mean 0.068571428571429
field stddev 1.8142294704443
field min 0
field max 48
field sum 48
field sqrsum 2304
attr "" ""
attr recordingmode stats
attr source throughput
attr title Throughput
statistic Network.Users[45] packetsReceivedStat:stats
field count 700
field mean 0.0085714285714286
field stddev 0.22677868380554
field min 0
field max 6
field sum 6
field sqrsum 36
attr "" ""
attr recordingmode stats
attr source packetsReceived
attr title "Packets received per timeslot"
statistic Network.Users[45] packetDelayStat:stats
field count 6
field mean 2.8429447332695
field stddev 0.046986211271573
field min 2.766942638357
field max 2.905056572142
field sum 17.057668399617
field sqrsum 48.505047058797
attr "" ""
attr recordingmode stats
attr source packetDelay
attr title "Packet delay"
par Network.Users[46] typename "\"pecsn_project.User\""
par Network.Users[46] CQIdistribution "\"binomial\""
statistic Network.Users[46] throughputStat:stats
field count 700
field mean 0.76
field stddev 15.096147743082
field min 0
field max 367
field sum 532
field sqrsum 159702
attr "" ""
attr recordingmode stats
attr source throughput
attr title Throughput
statistic Network.Users[46] packetsReceivedStat:stats
field count 700
field mean 0.092857142857143
field stddev 1.7752729688813
field min 0
field max 42
field sum 65
field sqrsum 2209
attr "" ""
attr recordingmode stats
attr source packetsReceived
attr title "Packets received per timeslot"
statistic Network.Users[46] packetDelayStat:stats
field count 65
field mean 1.6927295268704
field stddev 0.79986862257114
field min 0.360522494037
field max 2.97386991037
field sum 110.02741924658
field sqrsum 227.19320937995
attr "" ""
attr recordingmode stats
attr source packetDelay
attr title "Packet delay"
par Network.Users[47] typename "\"pecsn_project.User\""
par Network.Users[47] CQIdistribution "\"binomial\""
statistic Network.Users[47] throughputStat:stats
field count 700
field mean 0.91571428571429
field stddev 17.133742493132
field min 0
field max 348
field sum 641
field sqrsum 205789
attr "" ""
attr recordingmode stats
attr source throughput
attr title Throughput
statistic Network.Users[47] packetsReceivedStat:stats
field count 700
field mean 0.13285714285714
field stddev 2.4856222571649
field min 0
field max 53
field sum 93
field sqrsum 4331
attr "" ""
attr recordingmode stats
attr source packetsReceived
attr title "Packets received per timeslot"
statistic Network.Users[47] packetDelayStat:stats
field count 93
field mean 1.5897116735457
field stddev 0.92127660758168
field min 0.007007194993
field max 3.27245014701
field sum 147.84318563975
field sqrsum 313.11309213201
attr "" ""
attr recordingmode stats
attr source packetDelay
attr title "Packet delay"
par Network.Users[48] typename "\"pecsn_project.User\""
par Network.Users[48] CQIdistribution "\"binomial\""
statistic Network.Users[48] throughputStat:stats
field count 700
field mean 0.79428571428571
field stddev 12.483257866313
field min 0
field max 250
field sum 556
field sqrsum 109368
attr "" ""
attr recordingmode stats
attr source throughput
attr title Throughput
statistic Network.Users[48] packetsReceivedStat:stats
field count 700
field mean 0.11285714285714
field stddev 1.7595373813716
field min 0
field max 34
field sum 79
field sqrsum 2173
attr "" ""
attr recordingmode stats
attr source packetsReceived
attr title "Packets received per timeslot"
statistic Network.Users[48] packetDelayStat:stats
field count 79
field mean 1.6730584710963
field stddev 0.99238373104381
field min 0.014066344267
field max 3.352895517789
field sum 132.17161921661
field sqrsum 297.94723380082
attr "" ""
attr recordingmode stats
attr source packetDelay
attr title "Packet delay"
par Network.Users[49] typename "\"pecsn_project.User\""
par Network.Users[49] CQIdistribution "\"binomial\""
statistic Network.Users[49] throughputStat:stats
field count 700
field mean 1.1828571428571
field stddev 20.587737307615
field min 0
field max 490
field sum 828
field sqrsum 297254
attr "" ""
attr recordingmode stats
attr source throughput
attr title Throughput
statistic Network.Users[49] packetsReceivedStat:stats
field count 700
field mean 0.15857142857143
field stddev 2.6252320754223
field min 0
field max 59
field sum 111
field sqrsum 4835
attr "" ""
attr recordingmode stats
attr source packetsReceived
attr title "Packets received per timeslot"
statistic Network.Users[49] packetDelayStat:stats
field count 111
field mean 1.766115390375
field stddev 1.0241630738274
field min 0.111364949062
field max 3.570895704834
field sum 196.03880833162
field sqrsum 461.60725670231
attr "" ""
attr recordingmode stats
attr source packetDelay
attr title "Packet delay"
par Network.Users[50] typename "\"pecsn_project.User\""
par Network.Users[50] CQIdistribution "\"binomial\""
statistic Network.Users[50] throughputStat:stats
field count 700
field mean 0.40428571428571
field stddev 8.4949355562141
field min 0
field max 214
field sum 283
field sqrsum 50557
attr "" ""
attr recordingmode stats
attr source throughput
attr title Throughput
statistic Network.Users[50] packetsReceivedStat:stats
field count 700
field mean 0.047142857142857
field stddev 0.99169966214877
field min 0
field max 25
field sum 33
field sqrsum 689
attr "" ""
attr recordingmode stats
attr source packetsReceived
attr title "Packets received per timeslot"
statistic Network.Users[50] packetDelayStat:stats
field count 33
field mean 3.3333688368302
field stddev 0.2731935371417
field min 2.901114587342
field max 3.790328379641
field sum 110.0011716154
field sqrsum 369.06278815713
attr "" ""
attr recordingmode stats
attr source packetDelay
attr title "Packet delay"
par Network.Users[51] typename "\"pecsn_project.User\""
par Network.Users[51] CQIdistribution "\"binomial\""
statistic Network.Users[51] throughputStat:stats
field count 700
field mean 1.1971428571429
field stddev 17.971476139401
field min 0
field max 281
field sum 838
field sqrsum 226762
attr "" ""
attr recordingmode stats
attr source throughput
attr title Throughput
statistic Network.Users[51] packetsReceivedStat:stats
field count 700
field mean 0.14285714285714
field stddev 2.1700636798058
field min 0
field max 38
field sum 100
field sqrsum 3306
attr "" ""
attr recordingmode stats
attr source packetsReceived
attr title "Packets received per timeslot"
statistic Network.Users[51] packetDelayStat:stats
field count 100
field mean 2.1182063800607
field stddev 1.1867844121167
field min 0.008053181444
field max 3.929688170927
field sum 211.82063800607
field sqrsum 588.11709369648
attr "" ""
attr recordingmode stats
attr source packetDelay
attr title "Packet delay"
par Network.Users[52] typename "\"pecsn_project.User\""
par Network.Users[52] CQIdistribution "\"binomial\""
statistic Network.Users[52] throughputStat:stats
field count 700
field mean 1.2657142857143
field stddev 23.019633877152
field min 0
field max 492
field sum 886
field sqrsum 371524
attr "" ""
attr recordingmode stats
attr source throughput
attr title Throughput
statistic Network.Users[52] packetsReceivedStat:stats
field count 700
field mean 0.15571428571429
field stddev 2.7048483843539
field min 0
field max 55
field sum 109
field sqrsum 5131
attr "" ""
attr recordingmode stats
attr source packetsReceived
attr title "Packets received per timeslot"
statistic Network.Users[52] packetDelayStat:stats
field count 109
field mean 2.0189902891392
field stddev 1.2052202047882
field min 0.015338868399
field max 4.199782878596
field sum 220.06994151618
field sqrsum 601.19509499182
attr "" ""
attr recordingmode stats
attr source packetDelay
attr title "Packet delay"
par Network.Users[53] typename "\"pecsn_project.User\""
par Network.Users[53] CQIdistribution "\"binomial\""
statistic Network.Users[53] throughputStat:stats
field count 700
field mean 1.3185714285714
field stddev 21.504032245613
field min 0
field max 465
field sum 923
field sqrsum 324451
attr "" ""
attr recordingmode stats
attr source throughput
attr title Throughput
statistic Network.Users[53] packetsReceivedStat:stats
field count 700
field mean 0.16857142857143
field stddev 2.6589951987534
field min 0
field max 54
field sum 118
field sqrsum 4962
attr "" ""
attr recordingmode stats
attr source packetsReceived
attr title "Packets received per timeslot"
statistic Network.Users[53] packetDelayStat:stats
field count 118
field mean 2.2699386797722
field stddev 1.3362642115089
field min 0.03130524621
field max 4.458675265563
field sum 267.85276421312
field sqrsum 816.92478899752
attr "" ""
attr recordingmode stats
attr source packetDelay
attr title "Packet delay"
par Network.Users[54] typename "\"pecsn_project.User\""
par Network.Users[54] CQIdistribution "\"binomial\""
statistic Network.Users[54] throughputStat:stats
field count 700
field mean 0
field stddev 0
field min 0
field max 0
field sum 0
field sqrsum 0
attr "" ""
attr recordingmode stats
attr source throughput
attr title Throughput
statistic Network.Users[54] packetsReceivedStat:stats
field count 700
field mean 0
field stddev 0
field min 0
field max 0
field sum 0
field sqrsum 0
attr "" ""
attr recordingmode stats
attr source packetsReceived
attr title "Packets received per timeslot"
statistic Network.Users[54] packetDelayStat:stats
field count 0
field mean nan
field stddev nan
field min nan
field max nan
field sum 0
field sqrsum 0
attr "" ""
attr recordingmode stats
attr source packetDelay
attr title "Packet delay"
par Network.Users[55] typename "\"pecsn_project.User\""
par Network.Users[55] CQIdistribution "\"binomial\""
statistic Network.Users[55] throughputStat:stats
field count 700
field mean 1.5028571428571
field stddev 24.194875085029
field min 0
field max 490
field sum 1052
field sqrsum 410770
attr "" ""
attr recordingmode stats
attr source throughput
attr title Throughput
statistic Network.Users[55] packetsReceivedStat:stats
field count 700
field mean 0.19
field stddev 3.0441975575956
field min 0
field max 62
field sum 133
field sqrsum 6503
attr "" ""
attr recordingmode stats
attr source packetsReceived
attr title "Packets received per timeslot"
statistic Network.Users[55] packetDelayStat:stats
field count 133
field mean 2.4200818967484
field stddev 1.3315803189831
field min 0.038170902375
field max 4.723062855114
field sum 321.87089226754
field sqrsum 1013.0039307262
attr "" ""
attr recordingmode stats
attr source packetDelay
attr title "Packet delay"
par Network.Users[56] typename "\"pecsn_project.User\""
par Network.Users[56] CQIdistribution "\"binomial\""
statistic Network.Users[56] throughputStat:stats
field count 700
field mean 1.7985714285714
field stddev 27.890255977669
field min 0
field max 499
field sum 1259
field sqrsum 545993
attr "" ""
attr recordingmode stats
attr source throughput
attr title Throughput
statistic Network.Users[56] packetsReceivedStat:stats
field count 700
field mean 0.20285714285714
field stddev 3.1475844646959
field min 0
field max 55
field sum 142
field sqrsum 6954
attr "" ""
attr recordingmode stats
attr source packetsReceived
attr title "Packets received per timeslot"
statistic Network.Users[56] packetDelayStat:stats
field count 142
field mean 2.5545541481629
field stddev 1.417693431289
field min 0.06112202713
field max 4.998125399853
field sum 362.74668903913
field sqrsum 1210.0455669992
attr "" ""
attr recordingmode stats
attr source packetDelay
attr title "Packet delay"
par Network.Users[57] typename "\"pecsn_project.User\""
par Network.Users[57] CQIdistribution "\"binomial\""
statistic Network.Users[57] throughputStat:stats
field count 700
field mean 1.44
field stddev 19.62788591722
field min 0
field max 374
field sum 1008
field sqrsum 270744
attr "" ""
attr recordingmode stats
attr source throughput
attr title Throughput
statistic Network.Users[57] packetsReceivedStat:stats
field count 700
field mean 0.19285714285714
field stddev 2.612001651263
field min 0
field max 49
field sum 135
field sqrsum 4795
attr "" ""
attr recordingmode stats
attr source packetsReceived
attr title "Packets received per timeslot"
statistic Network.Users[57] packetDelayStat:stats
field count 135
field mean 2.4780707503972
field stddev 1.5129737048278
field min 0.039268322058
field max 5.09372863603
field sum 334.53955130362
field sqrsum 1135.7506607575
attr "" ""
attr recordingmode stats
attr source packetDelay
attr title "Packet delay"
par Network.Users[58] typename "\"pecsn_project.User\""
par Network.Users[58] CQIdistribution "\"binomial\""
statistic Network.Users[58] throughputStat:stats
field count 700
field mean 1.9571428571429
field stddev 28.833812071552
field min 0
field max 619
field sum 1370
field sqrsum 583822
attr "" ""
attr recordingmode stats
attr source throughput
attr title Throughput
statistic Network.Users[58] packetsReceivedStat:stats
field count 700
field mean 0.24428571428571
field stddev 3.5419471102345
field min 0
field max 73
field sum 171
field sqrsum 8811
attr "" ""
attr recordingmode stats
attr source packetsReceived
attr title "Packets received per timeslot"
statistic Network.Users[58] packetDelayStat:stats
field count 171
field mean 2.7007862686209
field stddev 1.555404337672
field min 0.044066799341
field max 5.596463045496
field sum 461.83445193418
field sqrsum 1658.5941972802
attr "" ""
attr recordingmode stats
attr source packetDelay
attr title "Packet delay"
par Network.Users[59] typename "\"pecsn_project.User\""
par Network.Users[59] CQIdistribution "\"binomial\""
statistic Network.Users[59] throughputStat:stats
field count 700
field mean 0.57571428571429
field stddev 11.136876785025
field min 0
field max 255
field sum 403
field sqrsum 86929
attr "" ""
attr recordingmode stats
attr source throughput
attr title Throughput
statistic Network.Users[59] packetsReceivedStat:stats
field count 700
field mean 0.078571428571429
field stddev 1.5094734567037
field min 0
field max 34
field sum 55
field sqrsum 1597
attr "" ""
attr recordingmode stats
attr source packetsReceived
attr title "Packets received per timeslot"
statistic Network.Users[59] packetDelayStat:stats
field count 55
field mean 4.6949262920752
field stddev 0.63389882587158
field min 3.628760212967
field max 5.853124296043
field sum 258.22094606414
field sqrsum 1234.0270057989
attr "" ""
attr recordingmode stats
attr source packetDelay
attr title "Packet delay"
par Network.Users[60] typename "\"pecsn_project.User\""
par Network.Users[60] CQIdistribution "\"binomial\""
statistic Network.Users[60] throughputStat:stats
field count 700
field mean 0
field stddev 0
field min 0
field max 0
field sum 0
field sqrsum 0
attr "" ""
attr recordingmode stats
attr source throughput
attr title Throughput
statistic Network.Users[60] packetsReceivedStat:stats
field count 700
field mean 0
field stddev 0
field min 0
field max 0
field sum 0
field sqrsum 0
attr "" ""
attr recordingmode stats
attr source packetsReceived
attr title "Packets received per timeslot"
statistic Network.Users[60] packetDelayStat:stats
field count 0
field mean nan
field stddev nan
field min nan
field max nan
field sum 0
field sqrsum 0
attr "" ""
attr recordingmode stats
attr source packetDelay
attr title "Packet delay"
par Network.Users[61] typename "\"pecsn_project.User\""
par Network.Users[61] CQIdistribution "\"binomial\""
statistic Network.Users[61] throughputStat:stats
field count 700
field mean 1.9785714285714
field stddev 30.070748208404
field min 0
field max 493
field sum 1385
field sqrsum 634811
attr "" ""
attr recordingmode stats
attr source throughput
attr title Throughput
statistic Network.Users[61] packetsReceivedStat:stats
field count 700
field mean 0.24571428571429
field stddev 3.7301189046348
field min 0
field max 66
field sum 172
field sqrsum 9768
attr "" ""
attr recordingmode stats
attr source packetsReceived
attr title "Packets received per timeslot"
statistic Network.Users[61] packetDelayStat:stats
field count 172
field mean 3.0005867545823
field stddev 1.537433852174
field min 0.073814004773
field max 5.935434860841
field sum 516.10092178815
field sqrsum 1952.7987772628
attr "" ""
attr recordingmode stats
attr source packetDelay
attr title "Packet delay"
par Network.Users[62] typename "\"pecsn_project.User\""
par Network.Users[62] CQIdistribution "\"binomial\""
statistic Network.Users[62] throughputStat:stats
field count 700
field mean 1.6028571428571
field stddev 24.645225020043
field min 0
field max 433
field sum 1122
field sqrsum 426362
attr "" ""
attr recordingmode stats
attr source throughput
attr title Throughput
statistic Network.Users[62] packetsReceivedStat:stats
field count 700
field mean 0.20571428571429
field stddev 3.1817561896599
field min 0
field max 59
field sum 144
field sqrsum 7106
attr "" ""
attr recordingmode stats
attr source packetsReceived
attr title "Packets received per timeslot"
statistic Network.Users[62] packetDelayStat:stats
field count 144
field mean 3.211273673342
field stddev 1.8005244273131
field min 0.069138561987
field max 6.280086720143
field sum 462.42340896124
field sqrsum 1948.5581336435
attr "" ""
attr recordingmode stats
attr source packetDelay
attr title "Packet delay"
par Network.Users[63] typename "\"pecsn_project.User\""
par Network.Users[63] CQIdistribution "\"binomial\""
statistic Network.Users[63] throughputStat:stats
field count 700
field mean 1.1814285714286
field stddev 24.397869186593
field min 0
field max 624
field sum 827
field sqrsum 417061
attr "" ""
attr recordingmode stats
attr source throughput
attr title Throughput
statistic Network.Users[63] packetsReceivedStat:stats
field count 700
field mean 0.14
field stddev 2.8143002901313
field min 0
field max 71
field sum 98
field sqrsum 5550
attr "" ""
attr recordingmode stats
attr source packetsReceived
attr title "Packets received per timeslot"
statistic Network.Users[63] packetDelayStat:stats
field count 98
field mean 4.4904198734295
field stddev 1.1314070874999
field min 2.617340357482
field max 6.465934556433
field sum 440.06114759609
field sqrsum 2100.2272764613
attr "" ""
attr recordingmode stats
attr source packetDelay
attr title "Packet delay"
par Network.Users[64] typename "\"pecsn_project.User\""
par Network.Users[64] CQIdistribution "\"binomial\""
statistic Network.Users[64] throughputStat:stats
field count 700
field mean 2.1114285714286
field stddev 27.680460267955
field min 0
field max 390
field sum 1478
field sqrsum 538700
attr "" ""
attr recordingmode stats
attr source throughput
attr title Throughput
statistic Network.Users[64] packetsReceivedStat:stats
field count 700
field mean 0.27142857142857
field stddev 3.5843461465351
field min 0
field max 55
field sum 190
field sqrsum 9032
attr "" ""
attr recordingmode stats
attr source packetsReceived
attr title "Packets received per timeslot"
statistic Network.Users[64] packetDelayStat:stats
field count 190
field mean 3.3101891236186
field stddev 1.9759389470715
field min 0.017290311639
field max 6.715066226065
field sum 628.93593348754
field sqrsum 2819.8161490461
attr "" ""
attr recordingmode stats
attr source packetDelay
attr title "Packet delay"
par Network.Users[65] typename "\"pecsn_project.User\""
par Network.Users[65] CQIdistribution "\"binomial\""
statistic Network.Users[65] throughputStat:stats
field count 700
field mean 1.9885714285714
field stddev 29.421798303465
field min 0
field max 623
field sum 1392
field sqrsum 607852
attr "" ""
attr recordingmode stats
attr source throughput
attr title Throughput
statistic Network.Users[65] packetsReceivedStat:stats
field count 700
field mean 0.24142857142857
field stddev 3.6507389597138
field min 0
field max 80
field sum 169
field sqrsum 9357
attr "" ""
attr recordingmode stats
attr source packetsReceived
attr title "Packets received per timeslot"
statistic Network.Users[65] packetDelayStat:stats
field count 169
field mean 3.6576753478222
field stddev 2.1788430257152
field min 0.040913124444
field max 7.070480674598
field sum 618.14713378196
field sqrsum 3058.5374969201
attr "" ""
attr recordingmode stats
attr source packetDelay
attr title "Packet delay"
par Network.Users[66] typename "\"pecsn_project.User\""
par Network.Users[66] CQIdistribution "\"binomial\""
statistic Network.Users[66] throughputStat:stats
field count 700
field mean 1.95
field stddev 30.291035846379
field min 0
field max 541
field sum 1365
field sqrsum 644027
attr "" ""
attr recordingmode stats
attr source throughput
attr title Throughput
statistic Network.Users[66] packetsReceivedStat:stats
field count 700
field mean 0.23714285714286
field stddev 3.6649041710913
field min 0
field max 66
field sum 166
field sqrsum 9428
attr "" ""
attr recordingmode stats
attr source packetsReceived
attr title "Packets received per timeslot"
statistic Network.Users[66] packetDelayStat:stats
field count 166
field mean 3.7179969398799
field stddev 2.0393543263732
field min 0.019308174446
field max 7.396679338925
field sum 617.18749202007
field sqrsum 2980.9306079648
attr "" ""
attr recordingmode stats
attr source packetDelay
attr title "Packet delay"
par Network.Users[67] typename "\"pecsn_project.User\""
par Network.Users[67] CQIdistribution "\"binomial\""
statistic Network.Users[67] throughputStat:stats
field count 700
field mean 1.0128571428571
field stddev 19.961511043895
field min 0
field max 499
field sum 709
field sqrsum 279243
attr "" ""
attr recordingmode stats
attr source throughput
attr title Throughput
statistic Network.Users[67] packetsReceivedStat:stats
field count 700
field mean 0.12857142857143
field stddev 2.5609672069255
field min 0
field max 64
field sum 90
field sqrsum 4596
attr "" ""
attr recordingmode stats
attr source packetsReceived
attr title "Packets received per timeslot"
statistic Network.Users[67] packetDelayStat:stats
field count 90
field mean 5.6818581666695
field stddev 1.0875827582398
field min 3.930459910853
field max 7.592225998085
field sum 511.36723500026
field sqrsum 3010.7885271393
attr "" ""
attr recordingmode stats
attr source packetDelay
attr title "Packet delay"
par Network.Users[68] typename "\"pecsn_project.User\""
par Network.Users[68] CQIdistribution "\"binomial\""
statistic Network.Users[68] throughputStat:stats
field count 700
field mean 2.1371428571429
field stddev 40.107916554788
field min 0
field max 862
field sum 1496
field sqrsum 1127640
attr "" ""
attr recordingmode stats
attr source throughput
attr title Throughput
statistic Network.Users[68] packetsReceivedStat:stats
field count 700
field mean 0.26571428571429
field stddev 4.95308131475
field min 0
field max 99
field sum 186
field sqrsum 17198
attr "" ""
attr recordingmode stats
attr source packetsReceived
attr title "Packets received per timeslot"
statistic Network.Users[68] packetDelayStat:stats
field count 186
field mean 4.29603100156
field stddev 2.2961429288901
field min 0.001415526818
field max 7.870688171719
field sum 799.06176629017
field sqrsum 4408.1645048739
attr "" ""
attr recordingmode stats
attr source packetDelay
attr title "Packet delay"
par Network.Users[69] typename "\"pecsn_project.User\""
par Network.Users[69] CQIdistribution "\"binomial\""
statistic Network.Users[69] throughputStat:stats
field count 700
field mean 2.4142857142857
field stddev 33.00656407476
field min 0
field max 624
field sum 1690
field sqrsum 765594
attr "" ""
attr recordingmode stats
attr source throughput
attr title Throughput
statistic Network.Users[69] packetsReceivedStat:stats
field count 700
field mean 0.31285714285714
field stddev 4.2766432034623
field min 0
field max 80
field sum 219
field sqrsum 12853
attr "" ""
attr recordingmode stats
attr source packetsReceived
attr title "Packets received per timeslot"
statistic Network.Users[69] packetDelayStat:stats
field count 219
field mean 4.0020543061895
field stddev 2.3643585965635
field min 0.090861437875
field max 8.068543008134
field sum 876.44989305549
field sqrsum 4726.2618316074
attr "" ""
attr recordingmode stats
attr source packetDelay
attr title "Packet delay"
par Network.Users[70] typename "\"pecsn_project.User\""
par Network.Users[70] CQIdistribution "\"binomial\""
statistic Network.Users[70] throughputStat:stats
field count 700
field mean 2.8142857142857
field stddev 44.909858168551
field min 0
field max 973
field sum 1970
field sqrsum 1415354
attr "" ""
attr recordingmode stats
attr source throughput
attr title Throughput
statistic Network.Users[70] packetsReceivedStat:stats
field count 700
field mean 0.33285714285714
field stddev 5.2373485802681
field min 0
field max 111
field sum 233
field sqrsum 19251
attr "" ""
attr recordingmode stats
attr source packetsReceived
attr title "Packets received per timeslot"
statistic Network.Users[70] packetDelayStat:stats
field count 233
field mean 4.1825713360163
field stddev 2.469214379724
field min 0.088646036766
field max 8.352616856968
field sum 974.53912129179
field sqrsum 5490.5879540459
attr "" ""
attr recordingmode stats
attr source packetDelay
attr title "Packet delay"
par Network.Users[71] typename "\"pecsn_project.User\""
par Network.Users[71] CQIdistribution "\"binomial\""
statistic Network.Users[71] throughputStat:stats
field count 700
field mean 2.5
field stddev 29.150122019194
field min 0
field max 497
field sum 1750
field sqrsum 598336
attr "" ""
attr recordingmode stats
attr source throughput
attr title Throughput
statistic Network.Users[71] packetsReceivedStat:stats
field count 700
field mean 0.29571428571429
field stddev 3.475190455533
field min 0
field max 58
field sum 207
field sqrsum 8503
attr "" ""
attr recordingmode stats
attr source packetsReceived
attr title "Packets received per timeslot"
statistic Network.Users[71] packetDelayStat:stats
field count 207
field mean 4.3543997316568
field stddev 2.6151386469092
field min 0.127369220297
field max 8.659257675481
field sum 901.36074445296
field sqrsum 5333.7087131389
attr "" ""
attr recordingmode stats
attr source packetDelay
attr title "Packet delay"
par Network.Users[72] typename "\"pecsn_project.User\""
par Network.Users[72] CQIdistribution "\"binomial\""
statistic Network.Users[72] throughputStat:stats
field count 700
field mean 2.8542857142857
field stddev 32.568561711187
field min 0
field max 496
field sum 1998
field sqrsum 747140
attr "" ""
attr recordingmode stats
attr source throughput
attr title Throughput
statistic Network.Users[72] packetsReceivedStat:stats
field count 700
field mean 0.37285714285714
field stddev 4.2815243842029
field min 0
field max 70
field sum 261
field sqrsum 12911
attr "" ""
attr recordingmode stats
attr source packetsReceived
attr title "Packets received per timeslot"
statistic Network.Users[72] packetDelayStat:stats
field count 261
field mean 4.6108910039074
field stddev 2.7209455834079
field min 0.027255204255
field max 9.188614104127
field sum 1203.4425520198
field sqrsum 7473.8641024731
attr "" ""
attr recordingmode stats
attr source packetDelay
attr title "Packet delay"
par Network.Users[73] typename "\"pecsn_project.User\""
par Network.Users[73] CQIdistribution "\"binomial\""
statistic Network.Users[73] throughputStat:stats
field count 700
field mean 2.84
field stddev 41.894411863046
field min 0
field max 899
field sum 1988
field sqrsum 1232490
attr "" ""
attr recordingmode stats
attr source throughput
attr title Throughput
statistic Network.Users[73] packetsReceivedStat:stats
field count 700
field mean 0.35285714285714
field stddev 5.1733669626884
field min 0
field max 111
field sum 247
field sqrsum 18795
attr "" ""
attr recordingmode stats
attr source packetsReceived
attr title "Packets received per timeslot"
statistic Network.Users[73] packetDelayStat:stats
field count 247
field mean 4.8979535191223
field stddev 2.871704671287
field min 0.040805609358
field max 9.696979641925
field sum 1209.7945192232
field sqrsum 7954.2025017407
attr "" ""
attr recordingmode stats
attr source packetDelay
attr title "Packet delay"
par Network.Users[74] typename "\"pecsn_project.User\""
par Network.Users[74] CQIdistribution "\"binomial\""
statistic Network.Users[74] throughputStat:stats
field count 700
field mean 2.9685714285714
field stddev 43.496391387845
field min 0
field max 971
field sum 2078
field sqrsum 1328632
attr "" ""
attr recordingmode stats
attr source throughput
attr title Throughput
statistic Network.Users[74] packetsReceivedStat:stats
field count 700
field mean 0.36857142857143
field stddev 5.4264372411583
field min 0
field max 122
field sum 258
field sqrsum 20678
attr "" ""
attr recordingmode stats
attr source packetsReceived
attr title "Packets received per timeslot"
statistic Network.Users[74] packetDelayStat:stats
field count 258
field mean 5.265576655422
field stddev 2.8282647638748
field min 0.054846898895
field max 10.086720962857
field sum 1358.5187770989
field sqrsum 9209.1487233101
attr "" ""
attr recordingmode stats
attr source packetDelay
attr title "Packet delay"
par Network.Users[75] typename "\"pecsn_project.User\""
par Network.Users[75] CQIdistribution "\"binomial\""
statistic Network.Users[75] throughputStat:stats
field count 700
field mean 2.5242857142857
field stddev 42.045254370532
field min 0
field max 953
field sum 1767
field sqrsum 1240155
attr "" ""
attr recordingmode stats
attr source throughput
attr title Throughput
statistic Network.Users[75] packetsReceivedStat:stats
field count 700
field mean 0.30428571428571
field stddev 4.971188397289
field min 0
field max 109
field sum 213
field sqrsum 17339
attr "" ""
attr recordingmode stats
attr source packetsReceived
attr title "Packets received per timeslot"
statistic Network.Users[75] packetDelayStat:stats
field count 213
field mean 5.191469979964
field stddev 3.0169357990289
field min 0.092189024859
field max 10.476998091317
field sum 1105.7831057323
field sqrsum 7670.2429402389
attr "" ""
attr recordingmode stats
attr source packetDelay
attr title "Packet delay"
par Network.Users[76] typename "\"pecsn_project.User\""
par Network.Users[76] CQIdistribution "\"binomial\""
statistic Network.Users[76] throughputStat:stats
field count 700
field mean 3.2171428571429
field stddev 51.152231414313
field min 0
field max 970
field sum 2252
field sqrsum 1836214
attr "" ""
attr recordingmode stats
attr source throughput
attr title Throughput
statistic Network.Users[76] packetsReceivedStat:stats
field count 700
field mean 0.39
field stddev 6.2762501675723
field min 0
field max 116
field sum 273
field sqrsum 27641
attr "" ""
attr recordingmode stats
attr source packetsReceived
attr title "Packets received per timeslot"
statistic Network.Users[76] packetDelayStat:stats
field count 273
field mean 5.2599278441177
field stddev 3.0257499861104
field min 0.069670874392
field max 10.567275603155
field sum 1435.9603014441
field sqrsum 10043.251902751
attr "" ""
attr recordingmode stats
attr source packetDelay
attr title "Packet delay"
par Network.Users[77] typename "\"pecsn_project.User\""
par Network.Users[77] CQIdistribution "\"binomial\""
statistic Network.Users[77] throughputStat:stats
field count 700
field mean 3.1328571428571
field stddev 42.603516016248
field min 0
field max 635
field sum 2193
field sqrsum 1275597
attr "" ""
attr recordingmode stats
attr source throughput
attr title Throughput
statistic Network.Users[77] packetsReceivedStat:stats
field count 700
field mean 0.38571428571429
field stddev 5.2412277202515
field min 0
field max 83
field sum 270
field sqrsum 19306
attr "" ""
attr recordingmode stats
attr source packetsReceived
attr title "Packets received per timeslot"
statistic Network.Users[77] packetDelayStat:stats
field count 270
field mean 5.6229199991133
field stddev 3.3109382159181
field min 0.005589425416
field max 10.973494854464
field sum 1518.1883997606
field sqrsum 11485.513808365
attr "" ""
attr recordingmode stats
attr source packetDelay
attr title "Packet delay"
par Network.Users[78] typename "\"pecsn_project.User\""
par Network.Users[78] CQIdistribution "\"binomial\""
statistic Network.Users[78] throughputStat:stats
field count 700
field mean 3.2342857142857
field stddev 32.957326575824
field min 0
field max 387
field sum 2264
field sqrsum 766566
attr "" ""
attr recordingmode stats
attr source throughput
attr title Throughput
statistic Network.Users[78] packetsReceivedStat:stats
field count 700
field mean 0.38857142857143
field stddev 3.9691782069677
field min 0
field max 50
field sum 272
field sqrsum 11118
attr "" ""
attr recordingmode stats
attr source packetsReceived
attr title "Packets received per timeslot"
statistic Network.Users[78] packetDelayStat:stats
field count 272
field mean 5.5535667569777
field stddev 3.3553110408764
field min 0.02848993265
field max 11.291282576894
field sum 1510.5701578979
field sqrsum 11440.000614043
attr "" ""
attr recordingmode stats
attr source packetDelay
attr title "Packet delay"
par Network.Users[79] typename "\"pecsn_project.User\""
par Network.Users[79] CQIdistribution "\"binomial\""
statistic Network.Users[79] throughputStat:stats
field count 700
field mean 3.3757142857143
field stddev 56.418046544381
field min 0
field max 1241
field sum 2363
field sqrsum 2232891
attr "" ""
attr recordingmode stats
attr source throughput
attr title Throughput
statistic Network.Users[79] packetsReceivedStat:stats
field count 700
field mean 0.43857142857143
field stddev 7.2869215327239
field min 0
field max 157
field sum 307
field sqrsum 37251
attr "" ""
attr recordingmode stats
attr source packetsReceived
attr title "Packets received per timeslot"
statistic Network.Users[79] packetDelayStat:stats
field count 307
field mean 5.7549275595638
field stddev 3.4159983516393
field min 0.015164561007
field max 11.864744949473
field sum 1766.7627607861
field sqrsum 13738.31939321
attr "" ""
attr recordingmode stats
attr source packetDelay
attr title "Packet delay"
par Network.Users[80] typename "\"pecsn_project.User\""
par Network.Users[80] CQIdistribution "\"binomial\""
statistic Network.Users[80] throughputStat:stats
field count 700
field mean 3.4328571428571
field stddev 46.016353445116
field min 0
field max 888
field sum 2403
field sqrsum 1488385
attr "" ""
attr recordingmode stats
attr source throughput
attr title Throughput
statistic Network.Users[80] packetsReceivedStat:stats
field count 700
field mean 0.42857142857143
field stddev 5.8018580926108
field min 0
[...]
par Network.PG[48] typename "\"pecsn_project.PacketGenerator\""
par Network.PG[48] NUM_USER 200
par Network.PG[48] LAMBDA 25
par Network.PG[49] typename "\"pecsn_project.PacketGenerator\""
par Network.PG[49] NUM_USER 200
par Network.PG[49] LAMBDA 25
par Network.PG[50] typename "\"pecsn_project.PacketGenerator\""
par Network.PG[50] NUM_USER 200
par Network.PG[50] LAMBDA 25
par Network.PG[51] typename "\"pecsn_project.PacketGenerator\""
par Network.PG[51] NUM_USER 200
par Network.PG[51] LAMBDA 25
par Network.PG[52] typename "\"pecsn_project.PacketGenerator\""
par Network.PG[52] NUM_USER 200
par Network.PG[52] LAMBDA 25
par Network.PG[53] typename "\"pecsn_project.PacketGenerator\""
par Network.PG[53] NUM_USER 200
par Network.PG[53] LAMBDA 25
par Network.PG[54] typename "\"pecsn_project.PacketGenerator\""
par Network.PG[54] NUM_USER 200
par Network.PG[54] LAMBDA 25
par Network.PG[55] typename "\"pecsn_project.PacketGenerator\""
par Network.PG[55] NUM_USER 200
par Network.PG[55] LAMBDA 25
par Network.PG[56] typename "\"pecsn_project.PacketGenerator\""
par Network.PG[56] NUM_USER 200
par Network.PG[56] LAMBDA 25
par Network.PG[57] typename "\"pecsn_project.PacketGenerator\""
par Network.PG[57] NUM_USER 200
par Network.PG[57] LAMBDA 25
par Network.PG[58] typename "\"pecsn_project.PacketGenerator\""
par Network.PG[58] NUM_USER 200
par Network.PG[58] LAMBDA 25
par Network.PG[59] typename "\"pecsn_project.PacketGenerator\""
par Network.PG[59] NUM_USER 200
par Network.PG[59] LAMBDA 25
par Network.PG[60] typename "\"pecsn_project.PacketGenerator\""
par Network.PG[60] NUM_USER 200
par Network.PG[60] LAMBDA 25
par Network.PG[61] typename "\"pecsn_project.PacketGenerator\""
par Network.PG[61] NUM_USER 200
par Network.PG[61] LAMBDA 25
par Network.PG[62] typename "\"pecsn_project.PacketGenerator\""
par Network.PG[62] NUM_USER 200
par Network.PG[62] LAMBDA 25
par Network.PG[63] typename "\"pecsn_project.PacketGenerator\""
par Network.PG[63] NUM_USER 200
par Network.PG[63] LAMBDA 25
par Network.PG[64] typename "\"pecsn_project.PacketGenerator\""
par Network.PG[64] NUM_USER 200
par Network.PG[64] LAMBDA 25
par Network.PG[65] typename "\"pecsn_project.PacketGenerator\""
par Network.PG[65] NUM_USER 200
par Network.PG[65] LAMBDA 25
par Network.PG[66] typename "\"pecsn_project.PacketGenerator\""
par Network.PG[66] NUM_USER 200
par Network.PG[66] LAMBDA 25
par Network.PG[67] typename "\"pecsn_project.PacketGenerator\""
par Network.PG[67] NUM_USER 200
par Network.PG[67] LAMBDA 25
par Network.PG[68] typename "\"pecsn_project.PacketGenerator\""
par Network.PG[68] NUM_USER 200
par Network.PG[68] LAMBDA 25
par Network.PG[69] typename "\"pecsn_project.PacketGenerator\""
par Network.PG[69] NUM_USER 200
par Network.PG[69] LAMBDA 25
par Network.PG[70] typename "\"pecsn_project.PacketGenerator\""
par Network.PG[70] NUM_USER 200
par Network.PG[70] LAMBDA 25
par Network.PG[71] typename "\"pecsn_project.PacketGenerator\""
par Network.PG[71] NUM_USER 200
par Network.PG[71] LAMBDA 25
par Network.PG[72] typename "\"pecsn_project.PacketGenerator\""
par Network.PG[72] NUM_USER 200
par Network.PG[72] LAMBDA 25
par Network.PG[73] typename "\"pecsn_project.PacketGenerator\""
par Network.PG[73] NUM_USER 200
par Network.PG[73] LAMBDA 25
par Network.PG[74] typename "\"pecsn_project.PacketGenerator\""
par Network.PG[74] NUM_USER 200
par Network.PG[74] LAMBDA 25
par Network.PG[75] typename "\"pecsn_project.PacketGenerator\""
par Network.PG[75] NUM_USER 200
par Network.PG[75] LAMBDA 25
par Network.PG[76] typename "\"pecsn_project.PacketGenerator\""
par Network.PG[76] NUM_USER 200
par Network.PG[76] LAMBDA 25
par Network.PG[77] typename "\"pecsn_project.PacketGenerator\""
par Network.PG[77] NUM_USER 200
par Network.PG[77] LAMBDA 25
par Network.PG[78] typename "\"pecsn_project.PacketGenerator\""
par Network.PG[78] NUM_USER 200
par Network.PG[78] LAMBDA 25
par Network.PG[79] typename "\"pecsn_project.PacketGenerator\""
par Network.PG[79] NUM_USER 200
par Network.PG[79] LAMBDA 25
par Network.PG[80] typename "\"pecsn_project.PacketGenerator\""
par Network.PG[80] NUM_USER 200
par Network.PG[80] LAMBDA 25
par Network.PG[81] typename "\"pecsn_project.PacketGenerator\""
par Network.PG[81] NUM_USER 200
par Network.PG[81] LAMBDA 25
par Network.PG[82] typename "\"pecsn_project.PacketGenerator\""
par Network.PG[82] NUM_USER 200
par Network.PG[82] LAMBDA 25
par Network.PG[83] typename "\"pecsn_project.PacketGenerator\""
par Network.PG[83] NUM_USER 200
par Network.PG[83] LAMBDA 25
par Network.PG[84] typename "\"pecsn_project.PacketGenerator\""
par Network.PG[84] NUM_USER 200
par Network.PG[84] LAMBDA 25
par Network.PG[85] typename "\"pecsn_project.PacketGenerator\""
par Network.PG[85] NUM_USER 200
par Network.PG[85] LAMBDA 25
par Network.PG[86] typename "\"pecsn_project.PacketGenerator\""
par Network.PG[86] NUM_USER 200
par Network.PG[86] LAMBDA 25
par Network.PG[87] typename "\"pecsn_project.PacketGenerator\""
par Network.PG[87] NUM_USER 200
par Network.PG[87] LAMBDA 25
par Network.PG[88] typename "\"pecsn_project.PacketGenerator\""
par Network.PG[88] NUM_USER 200
par Network.PG[88] LAMBDA 25
par Network.PG[89] typename "\"pecsn_project.PacketGenerator\""
par Network.PG[89] NUM_USER 200
par Network.PG[89] LAMBDA 25
par Network.PG[90] typename "\"pecsn_project.PacketGenerator\""
par Network.PG[90] NUM_USER 200
par Network.PG[90] LAMBDA 25
par Network.PG[91] typename "\"pecsn_project.PacketGenerator\""
par Network.PG[91] NUM_USER 200
par Network.PG[91] LAMBDA 25
par Network.PG[92] typename "\"pecsn_project.PacketGenerator\""
par Network.PG[92] NUM_USER 200
par Network.PG[92] LAMBDA 25
par Network.PG[93] typename "\"pecsn_project.PacketGenerator\""
par Network.PG[93] NUM_USER 200
par Network.PG[93] LAMBDA 25
par Network.PG[94] typename "\"pecsn_project.PacketGenerator\""
par Network.PG[94] NUM_USER 200
par Network.PG[94] LAMBDA 25
par Network.PG[95] typename "\"pecsn_project.PacketGenerator\""
par Network.PG[95] NUM_USER 200
par Network.PG[95] LAMBDA 25
par Network.PG[96] typename "\"pecsn_project.PacketGenerator\""
par Network.PG[96] NUM_USER 200
par Network.PG[96] LAMBDA 25
par Network.PG[97] typename "\"pecsn_project.PacketGenerator\""
par Network.PG[97] NUM_USER 200
par Network.PG[97] LAMBDA 25
par Network.PG[98] typename "\"pecsn_project.PacketGenerator\""
par Network.PG[98] NUM_USER 200
par Network.PG[98] LAMBDA 25
par Network.PG[99] typename "\"pecsn_project.PacketGenerator\""
par Network.PG[99] NUM_USER 200
par Network.PG[99] LAMBDA 25
par Network.PG[100] typename "\"pecsn_project.PacketGenerator\""
par Network.PG[100] NUM_USER 200
par Network.PG[100] LAMBDA 25
par Network.PG[101] typename "\"pecsn_project.PacketGenerator\""
par Network.PG[101] NUM_USER 200
par Network.PG[101] LAMBDA 25
par Network.PG[102] typename "\"pecsn_project.PacketGenerator\""
par Network.PG[102] NUM_USER 200
par Network.PG[102] LAMBDA 25
par Network.PG[103] typename "\"pecsn_project.PacketGenerator\""
par Network.PG[103] NUM_USER 200
par Network.PG[103] LAMBDA 25
par Network.PG[104] typename "\"pecsn_project.PacketGenerator\""
par Network.PG[104] NUM_USER 200
par Network.PG[104] LAMBDA 25
par Network.PG[105] typename "\"pecsn_project.PacketGenerator\""
par Network.PG[105] NUM_USER 200
par Network.PG[105] LAMBDA 25
par Network.PG[106] typename "\"pecsn_project.PacketGenerator\""
par Network.PG[106] NUM_USER 200
par Network.PG[106] LAMBDA 25
par Network.PG[107] typename "\"pecsn_project.PacketGenerator\""
par Network.PG[107] NUM_USER 200
par Network.PG[107] LAMBDA 25
par Network.PG[108] typename "\"pecsn_project.PacketGenerator\""
par Network.PG[108] NUM_USER 200
par Network.PG[108] LAMBDA 25
par Network.PG[109] typename "\"pecsn_project.PacketGenerator\""
par Network.PG[109] NUM_USER 200
par Network.PG[109] LAMBDA 25
par Network.PG[110] typename "\"pecsn_project.PacketGenerator\""
par Network.PG[110] NUM_USER 200
par Network.PG[110] LAMBDA 25
par Network.PG[111] typename "\"pecsn_project.PacketGenerator\""
par Network.PG[111] NUM_USER 200
par Network.PG[111] LAMBDA 25
par Network.PG[112] typename "\"pecsn_project.PacketGenerator\""
par Network.PG[112] NUM_USER 200
par Network.PG[112] LAMBDA 25
par Network.PG[113] typename "\"pecsn_project.PacketGenerator\""
par Network.PG[113] NUM_USER 200
par Network.PG[113] LAMBDA 25
par Network.PG[114] typename "\"pecsn_project.PacketGenerator\""
par Network.PG[114] NUM_USER 200
par Network.PG[114] LAMBDA 25
par Network.PG[115] typename "\"pecsn_project.PacketGenerator\""
par Network.PG[115] NUM_USER 200
par Network.PG[115] LAMBDA 25
par Network.PG[116] typename "\"pecsn_project.PacketGenerator\""
par Network.PG[116] NUM_USER 200
par Network.PG[116] LAMBDA 25
par Network.PG[117] typename "\"pecsn_project.PacketGenerator\""
par Network.PG[117] NUM_USER 200
par Network.PG[117] LAMBDA 25
par Network.PG[118] typename "\"pecsn_project.PacketGenerator\""
par Network.PG[118] NUM_USER 200
par Network.PG[118] LAMBDA 25
par Network.PG[119] typename "\"pecsn_project.PacketGenerator\""
par Network.PG[119] NUM_USER 200
par Network.PG[119] LAMBDA 25
par Network.PG[120] typename "\"pecsn_project.PacketGenerator\""
par Network.PG[120] NUM_USER 200
par Network.PG[120] LAMBDA 25
par Network.PG[121] typename "\"pecsn_project.PacketGenerator\""
par Network.PG[121] NUM_USER 200
par Network.PG[121] LAMBDA 25
par Network.PG[122] typename "\"pecsn_project.PacketGenerator\""
par Network.PG[122] NUM_USER 200
par Network.PG[122] LAMBDA 25
par Network.PG[123] typename "\"pecsn_project.PacketGenerator\""
par Network.PG[123] NUM_USER 200
par Network.PG[123] LAMBDA 25
par Network.PG[124] typename "\"pecsn_project.PacketGenerator\""
par Network.PG[124] NUM_USER 200
par Network.PG[124] LAMBDA 25
par Network.PG[125] typename "\"pecsn_project.PacketGenerator\""
par Network.PG[125] NUM_USER 200
par Network.PG[125] LAMBDA 25
par Network.PG[126] typename "\"pecsn_project.PacketGenerator\""
par Network.PG[126] NUM_USER 200
par Network.PG[126] LAMBDA 25
par Network.PG[127] typename "\"pecsn_project.PacketGenerator\""
par Network.PG[127] NUM_USER 200
par Network.PG[127] LAMBDA 25
par Network.PG[128] typename "\"pecsn_project.PacketGenerator\""
par Network.PG[128] NUM_USER 200
par Network.PG[128] LAMBDA 25
par Network.PG[129] typename "\"pecsn_project.PacketGenerator\""
par Network.PG[129] NUM_USER 200
par Network.PG[129] LAMBDA 25
par Network.PG[130] typename "\"pecsn_project.PacketGenerator\""
par Network.PG[130] NUM_USER 200
par Network.PG[130] LAMBDA 25
par Network.PG[131] typename "\"pecsn_project.PacketGenerator\""
par Network.PG[131] NUM_USER 200
par Network.PG[131] LAMBDA 25
par Network.PG[132] typename "\"pecsn_project.PacketGenerator\""
par Network.PG[132] NUM_USER 200
par Network.PG[132] LAMBDA 25
par Network.PG[133] typename "\"pecsn_project.PacketGenerator\""
par Network.PG[133] NUM_USER 200
par Network.PG[133] LAMBDA 25
par Network.PG[134] typename "\"pecsn_project.PacketGenerator\""
par Network.PG[134] NUM_USER 200
par Network.PG[134] LAMBDA 25
par Network.PG[135] typename "\"pecsn_project.PacketGenerator\""
par Network.PG[135] NUM_USER 200
par Network.PG[135] LAMBDA 25
par Network.PG[136] typename "\"pecsn_project.PacketGenerator\""
par Network.PG[136] NUM_USER 200
par Network.PG[136] LAMBDA 25
par Network.PG[137] typename "\"pecsn_project.PacketGenerator\""
par Network.PG[137] NUM_USER 200
par Network.PG[137] LAMBDA 25
par Network.PG[138] typename "\"pecsn_project.PacketGenerator\""
par Network.PG[138] NUM_USER 200
par Network.PG[138] LAMBDA 25
par Network.PG[139] typename "\"pecsn_project.PacketGenerator\""
par Network.PG[139] NUM_USER 200
par Network.PG[139] LAMBDA 25
par Network.PG[140] typename "\"pecsn_project.PacketGenerator\""
par Network.PG[140] NUM_USER 200
par Network.PG[140] LAMBDA 25
par Network.PG[141] typename "\"pecsn_project.PacketGenerator\""
par Network.PG[141] NUM_USER 200
par Network.PG[141] LAMBDA 25
par Network.PG[142] typename "\"pecsn_project.PacketGenerator\""
par Network.PG[142] NUM_USER 200
par Network.PG[142] LAMBDA 25
par Network.PG[143] typename "\"pecsn_project.PacketGenerator\""
par Network.PG[143] NUM_USER 200
par Network.PG[143] LAMBDA 25
par Network.PG[144] typename "\"pecsn_project.PacketGenerator\""
par Network.PG[144] NUM_USER 200
par Network.PG[144] LAMBDA 25
par Network.PG[145] typename "\"pecsn_project.PacketGenerator\""
par Network.PG[145] NUM_USER 200
par Network.PG[145] LAMBDA 25
par Network.PG[146] typename "\"pecsn_project.PacketGenerator\""
par Network.PG[146] NUM_USER 200
par Network.PG[146] LAMBDA 25
par Network.PG[147] typename "\"pecsn_project.PacketGenerator\""
par Network.PG[147] NUM_USER 200
par Network.PG[147] LAMBDA 25
par Network.PG[148] typename "\"pecsn_project.PacketGenerator\""
par Network.PG[148] NUM_USER 200
par Network.PG[148] LAMBDA 25
par Network.PG[149] typename "\"pecsn_project.PacketGenerator\""
par Network.PG[149] NUM_USER 200
par Network.PG[149] LAMBDA 25
par Network.PG[150] typename "\"pecsn_project.PacketGenerator\""
par Network.PG[150] NUM_USER 200
par Network.PG[150] LAMBDA 25
par Network.PG[151] typename "\"pecsn_project.PacketGenerator\""
par Network.PG[151] NUM_USER 200
par Network.PG[151] LAMBDA 25
par Network.PG[152] typename "\"pecsn_project.PacketGenerator\""
par Network.PG[152] NUM_USER 200
par Network.PG[152] LAMBDA 25
par Network.PG[153] typename "\"pecsn_project.PacketGenerator\""
par Network.PG[153] NUM_USER 200
par Network.PG[153] LAMBDA 25
par Network.PG[154] typename "\"pecsn_project.PacketGenerator\""
par Network.PG[154] NUM_USER 200
par Network.PG[154] LAMBDA 25
par Network.PG[155] typename "\"pecsn_project.PacketGenerator\""
par Network.PG[155] NUM_USER 200
par Network.PG[155] LAMBDA 25
par Network.PG[156] typename "\"pecsn_project.PacketGenerator\""
par Network.PG[156] NUM_USER 200
par Network.PG[156] LAMBDA 25
par Network.PG[157] typename "\"pecsn_project.PacketGenerator\""
par Network.PG[157] NUM_USER 200
par Network.PG[157] LAMBDA 25
par Network.PG[158] typename "\"pecsn_project.PacketGenerator\""
par Network.PG[158] NUM_USER 200
par Network.PG[158] LAMBDA 25
par Network.PG[159] typename "\"pecsn_project.PacketGenerator\""
par Network.PG[159] NUM_USER 200
par Network.PG[159] LAMBDA 25
par Network.PG[160] typename "\"pecsn_project.PacketGenerator\""
par Network.PG[160] NUM_USER 200
par Network.PG[160] LAMBDA 25
par Network.PG[161] typename "\"pecsn_project.PacketGenerator\""
par Network.PG[161] NUM_USER 200
par Network.PG[161] LAMBDA 25
par Network.PG[162] typename "\"pecsn_project.PacketGenerator\""
par Network.PG[162] NUM_USER 200
par Network.PG[162] LAMBDA 25
par Network.PG[163] typename "\"pecsn_project.PacketGenerator\""
par Network.PG[163] NUM_USER 200
par Network.PG[163] LAMBDA 25
par Network.PG[164] typename "\"pecsn_project.PacketGenerator\""
par Network.PG[164] NUM_USER 200
par Network.PG[164] LAMBDA 25
par Network.PG[165] typename "\"pecsn_project.PacketGenerator\""
par Network.PG[165] NUM_USER 200
par Network.PG[165] LAMBDA 25
par Network.PG[166] typename "\"pecsn_project.PacketGenerator\""
par Network.PG[166] NUM_USER 200
par Network.PG[166] LAMBDA 25
par Network.PG[167] typename "\"pecsn_project.PacketGenerator\""
par Network.PG[167] NUM_USER 200
par Network.PG[167] LAMBDA 25
par Network.PG[168] typename "\"pecsn_project.PacketGenerator\""
par Network.PG[168] NUM_USER 200
par Network.PG[168] LAMBDA 25
par Network.PG[169] typename "\"pecsn_project.PacketGenerator\""
par Network.PG[169] NUM_USER 200
par Network.PG[169] LAMBDA 25
par Network.PG[170] typename "\"pecsn_project.PacketGenerator\""
par Network.PG[170] NUM_USER 200
par Network.PG[170] LAMBDA 25
par Network.PG[171] typename "\"pecsn_project.PacketGenerator\""
par Network.PG[171] NUM_USER 200
par Network.PG[171] LAMBDA 25
par Network.PG[172] typename "\"pecsn_project.PacketGenerator\""
par Network.PG[172] NUM_USER 200
par Network.PG[172] LAMBDA 25
par Network.PG[173] typename "\"pecsn_project.PacketGenerator\""
par Network.PG[173] NUM_USER 200
par Network.PG[173] LAMBDA 25
par Network.PG[174] typename "\"pecsn_project.PacketGenerator\""
par Network.PG[174] NUM_USER 200
par Network.PG[174] LAMBDA 25
par Network.PG[175] typename "\"pecsn_project.PacketGenerator\""
par Network.PG[175] NUM_USER 200
par Network.PG[175] LAMBDA 25
par Network.PG[176] typename "\"pecsn_project.PacketGenerator\""
par Network.PG[176] NUM_USER 200
par Network.PG[176] LAMBDA 25
par Network.PG[177] typename "\"pecsn_project.PacketGenerator\""
par Network.PG[177] NUM_USER 200
par Network.PG[177] LAMBDA 25
par Network.PG[178] typename "\"pecsn_project.PacketGenerator\""
par Network.PG[178] NUM_USER 200
par Network.PG[178] LAMBDA 25
par Network.PG[179] typename "\"pecsn_project.PacketGenerator\""
par Network.PG[179] NUM_USER 200
par Network.PG[179] LAMBDA 25
par Network.PG[180] typename "\"pecsn_project.PacketGenerator\""
par Network.PG[180] NUM_USER 200
par Network.PG[180] LAMBDA 25
par Network.PG[181] typename "\"pecsn_project.PacketGenerator\""
par Network.PG[181] NUM_USER 200
par Network.PG[181] LAMBDA 25
par Network.PG[182] typename "\"pecsn_project.PacketGenerator\""
par Network.PG[182] NUM_USER 200
par Network.PG[182] LAMBDA 25
par Network.PG[183] typename "\"pecsn_project.PacketGenerator\""
par Network.PG[183] NUM_USER 200
par Network.PG[183] LAMBDA 25
par Network.PG[184] typename "\"pecsn_project.PacketGenerator\""
par Network.PG[184] NUM_USER 200
par Network.PG[184] LAMBDA 25
par Network.PG[185] typename "\"pecsn_project.PacketGenerator\""
par Network.PG[185] NUM_USER 200
par Network.PG[185] LAMBDA 25
par Network.PG[186] typename "\"pecsn_project.PacketGenerator\""
par Network.PG[186] NUM_USER 200
par Network.PG[186] LAMBDA 25
par Network.PG[187] typename "\"pecsn_project.PacketGenerator\""
par Network.PG[187] NUM_USER 200
par Network.PG[187] LAMBDA 25
par Network.PG[188] typename "\"pecsn_project.PacketGenerator\""
par Network.PG[188] NUM_USER 200
par Network.PG[188] LAMBDA 25
par Network.PG[189] typename "\"pecsn_project.PacketGenerator\""
par Network.PG[189] NUM_USER 200
par Network.PG[189] LAMBDA 25
par Network.PG[190] typename "\"pecsn_project.PacketGenerator\""
par Network.PG[190] NUM_USER 200
par Network.PG[190] LAMBDA 25
par Network.PG[191] typename "\"pecsn_project.PacketGenerator\""
par Network.PG[191] NUM_USER 200
par Network.PG[191] LAMBDA 25
par Network.PG[192] typename "\"pecsn_project.PacketGenerator\""
par Network.PG[192] NUM_USER 200
par Network.PG[192] LAMBDA 25
par Network.PG[193] typename "\"pecsn_project.PacketGenerator\""
par Network.PG[193] NUM_USER 200
par Network.PG[193] LAMBDA 25
par Network.PG[194] typename "\"pecsn_project.PacketGenerator\""
par Network.PG[194] NUM_USER 200
par Network.PG[194] LAMBDA 25
par Network.PG[195] typename "\"pecsn_project.PacketGenerator\""
par Network.PG[195] NUM_USER 200
par Network.PG[195] LAMBDA 25
par Network.PG[196] typename "\"pecsn_project.PacketGenerator\""
par Network.PG[196] NUM_USER 200
par Network.PG[196] LAMBDA 25
par Network.PG[197] typename "\"pecsn_project.PacketGenerator\""
par Network.PG[197] NUM_USER 200
par Network.PG[197] LAMBDA 25
par Network.PG[198] typename "\"pecsn_project.PacketGenerator\""
par Network.PG[198] NUM_USER 200
par Network.PG[198] LAMBDA 25
par Network.PG[199] typename "\"pecsn_project.PacketGenerator\""
par Network.PG[199] NUM_USER 200
par Network.PG[199] LAMBDA 25
par Network typename "\"pecsn_project.simulations.Network\""
par Network NUM_USER 200
par Network lambda 10
par Network CQIRngMultiplier 0
par Network PktSizeRngMultiplier 1
par Network PktGenerationRngMultiplier 2

