version 3
run binomialCQI-244-20231216-16:48:09-13716
attr configname binomialCQI
attr datetime 20231216-16:48:09
attr datetimef 20231216-164809
attr experiment binomialCQI
attr inifile omnetpp.ini
attr iterationvars "$simulationTime=70s, $nUser=200, $lambda=200"
attr iterationvarsd simulationTime=70s/nUser=200/lambda=200
attr iterationvarsf simulationTime=70s,nUser=200,lambda=200-
attr measurement "$simulationTime=70s, $nUser=200, $lambda=200"
attr network Network
attr processid 13716
attr repetition 4
attr replication #4
attr resultdir results
attr runnumber 244
attr seedset 4
itervar lambda 200
itervar nUser 200
itervar simulationTime 70s
config **.Users[*].CQIdistribution "\"binomial\""
config network Network
config cpu-time-limit 60s
config sim-time-limit 70s
config num-rngs 600
config repeat 10
config seed-set 4
config **.NUM_USER 200
config **.LAMBDA 200
config **.CQIArrayLength 15
config **.CQIValues "\" 3 3 6 11 15 20 25 36 39 50 63 72 80 93 93 \""
config **.frameSize 25
config **.timeSlot 0.1

par Network.BS typename "\"pecsn_project.BaseStation\""
par Network.BS CQIValues "\" 3 3 6 11 15 20 25 36 39 50 63 72 80 93 93 \""
par Network.BS CQIArrayLength 15
par Network.BS frameSize 25
par Network.BS timeSlot 0.1
statistic Network.BS simFrameStat:stats
field count 700
field mean 0
field stddev 0
field min 0
field max 0
field sum 0
field sqrsum 0
attr "" ""
attr recordingmode stats
attr source simFrame
attr title "Occupied frame slots"
par Network.Users[0] typename "\"pecsn_project.User\""
par Network.Users[0] CQIdistribution "\"binomial\""
statistic Network.Users[0] throughputStat:stats
field count 700
field mean 0
field stddev 0
field min 0
field max 0
field sum 0
field sqrsum 0
attr "" ""
attr recordingmode stats
attr source throughput
attr title Throughput
statistic Network.Users[0] packetsReceivedStat:stats
field count 700
field mean 0
field stddev 0
field min 0
field max 0
field sum 0
field sqrsum 0
attr "" ""
attr recordingmode stats
attr source packetsReceived
attr title "Packets received per timeslot"
statistic Network.Users[0] packetDelayStat:stats
field count 0
field mean nan
field stddev nan
field min nan
field max nan
field sum 0
field sqrsum 0
attr "" ""
attr recordingmode stats
attr source packetDelay
attr title "Packet delay"
par Network.Users[1] typename "\"pecsn_project.User\""
par Network.Users[1] CQIdistribution "\"binomial\""
statistic Network.Users[1] throughputStat:stats
field count 700
field mean 0
field stddev 0
field min 0
field max 0
field sum 0
field sqrsum 0
attr "" ""
attr recordingmode stats
attr source throughput
attr title Throughput
statistic Network.Users[1] packetsReceivedStat:stats
field count 700
field mean 0
field stddev 0
field min 0
field max 0
field sum 0
field sqrsum 0
attr "" ""
attr recordingmode stats
attr source packetsReceived
attr title "Packets received per timeslot"
statistic Network.Users[1] packetDelayStat:stats
field count 0
field mean nan
field stddev nan
field min nan
field max nan
field sum 0
field sqrsum 0
attr "" ""
attr recordingmode stats
attr source packetDelay
attr title "Packet delay"
par Network.Users[2] typename "\"pecsn_project.User\""
par Network.Users[2] CQIdistribution "\"binomial\""
statistic Network.Users[2] throughputStat:stats
field count 700
field mean 0
field stddev 0
field min 0
field max 0
field sum 0
field sqrsum 0
attr "" ""
attr recordingmode stats
attr source throughput
attr title Throughput
statistic Network.Users[2] packetsReceivedStat:stats
field count 700
field mean 0
field stddev 0
field min 0
field max 0
field sum 0
field sqrsum 0
attr "" ""
attr recordingmode stats
attr source packetsReceived
attr title "Packets received per timeslot"
statistic Network.Users[2] packetDelayStat:stats
field count 0
field mean nan
field stddev nan
field min nan
field max nan
field sum 0
field sqrsum 0
attr "" ""
attr recordingmode stats
attr source packetDelay
attr title "Packet delay"
par Network.Users[3] typename "\"pecsn_project.User\""
par Network.Users[3] CQIdistribution "\"binomial\""
statistic Network.Users[3] throughputStat:stats
field count 700
field mean 0
field stddev 0
field min 0
field max 0
field sum 0
field sqrsum 0
attr "" ""
attr recordingmode stats
attr source throughput
attr title Throughput
statistic Network.Users[3] packetsReceivedStat:stats
field count 700
field mean 0
field stddev 0
field min 0
field max 0
field sum 0
field sqrsum 0
attr "" ""
attr recordingmode stats
attr source packetsReceived
attr title "Packets received per timeslot"
statistic Network.Users[3] packetDelayStat:stats
field count 0
field mean nan
field stddev nan
field min nan
field max nan
field sum 0
field sqrsum 0
attr "" ""
attr recordingmode stats
attr source packetDelay
attr title "Packet delay"
par Network.Users[4] typename "\"pecsn_project.User\""
par Network.Users[4] CQIdistribution "\"binomial\""
statistic Network.Users[4] throughputStat:stats
field count 700
field mean 0
field stddev 0
field min 0
field max 0
field sum 0
field sqrsum 0
attr "" ""
attr recordingmode stats
attr source throughput
attr title Throughput
statistic Network.Users[4] packetsReceivedStat:stats
field count 700
field mean 0
field stddev 0
field min 0
field max 0
field sum 0
field sqrsum 0
attr "" ""
attr recordingmode stats
attr source packetsReceived
attr title "Packets received per timeslot"
statistic Network.Users[4] packetDelayStat:stats
field count 0
field mean nan
field stddev nan
field min nan
field max nan
field sum 0
field sqrsum 0
attr "" ""
attr recordingmode stats
attr source packetDelay
attr title "Packet delay"
par Network.Users[5] typename "\"pecsn_project.User\""
par Network.Users[5] CQIdistribution "\"binomial\""
statistic Network.Users[5] throughputStat:stats
field count 700
field mean 0
field stddev 0
field min 0
field max 0
field sum 0
field sqrsum 0
attr "" ""
attr recordingmode stats
attr source throughput
attr title Throughput
statistic Network.Users[5] packetsReceivedStat:stats
field count 700
field mean 0
field stddev 0
field min 0
field max 0
field sum 0
field sqrsum 0
attr "" ""
attr recordingmode stats
attr source packetsReceived
attr title "Packets received per timeslot"
statistic Network.Users[5] packetDelayStat:stats
field count 0
field mean nan
field stddev nan
field min nan
field max nan
field sum 0
field sqrsum 0
attr "" ""
attr recordingmode stats
attr source packetDelay
attr title "Packet delay"
par Network.Users[6] typename "\"pecsn_project.User\""
par Network.Users[6] CQIdistribution "\"binomial\""
statistic Network.Users[6] throughputStat:stats
field count 700
field mean 0
field stddev 0
field min 0
field max 0
field sum 0
field sqrsum 0
attr "" ""
attr recordingmode stats
attr source throughput
attr title Throughput
statistic Network.Users[6] packetsReceivedStat:stats
field count 700
field mean 0
field stddev 0
field min 0
field max 0
field sum 0
field sqrsum 0
attr "" ""
attr recordingmode stats
attr source packetsReceived
attr title "Packets received per timeslot"
statistic Network.Users[6] packetDelayStat:stats
field count 0
field mean nan
field stddev nan
field min nan
field max nan
field sum 0
field sqrsum 0
attr "" ""
attr recordingmode stats
attr source packetDelay
attr title "Packet delay"
par Network.Users[7] typename "\"pecsn_project.User\""
par Network.Users[7] CQIdistribution "\"binomial\""
statistic Network.Users[7] throughputStat:stats
field count 700
field mean 0
field stddev 0
field min 0
field max 0
field sum 0
field sqrsum 0
attr "" ""
attr recordingmode stats
attr source throughput
attr title Throughput
statistic Network.Users[7] packetsReceivedStat:stats
field count 700
field mean 0
field stddev 0
field min 0
field max 0
field sum 0
field sqrsum 0
attr "" ""
attr recordingmode stats
attr source packetsReceived
attr title "Packets received per timeslot"
statistic Network.Users[7] packetDelayStat:stats
field count 0
field mean nan
field stddev nan
field min nan
field max nan
field sum 0
field sqrsum 0
attr "" ""
attr recordingmode stats
attr source packetDelay
attr title "Packet delay"
par Network.Users[8] typename "\"pecsn_project.User\""
par Network.Users[8] CQIdistribution "\"binomial\""
statistic Network.Users[8] throughputStat:stats
field count 700
field mean 0
field stddev 0
field min 0
field max 0
field sum 0
field sqrsum 0
attr "" ""
attr recordingmode stats
attr source throughput
attr title Throughput
statistic Network.Users[8] packetsReceivedStat:stats
field count 700
field mean 0
field stddev 0
field min 0
field max 0
field sum 0
field sqrsum 0
attr "" ""
attr recordingmode stats
attr source packetsReceived
attr title "Packets received per timeslot"
statistic Network.Users[8] packetDelayStat:stats
field count 0
field mean nan
field stddev nan
field min nan
field max nan
field sum 0
field sqrsum 0
attr "" ""
attr recordingmode stats
attr source packetDelay
attr title "Packet delay"
par Network.Users[9] typename "\"pecsn_project.User\""
par Network.Users[9] CQIdistribution "\"binomial\""
statistic Network.Users[9] throughputStat:stats
field count 700
field mean 0
field stddev 0
field min 0
field max 0
field sum 0
field sqrsum 0
attr "" ""
attr recordingmode stats
attr source throughput
attr title Throughput
statistic Network.Users[9] packetsReceivedStat:stats
field count 700
field mean 0
field stddev 0
field min 0
field max 0
field sum 0
field sqrsum 0
attr "" ""
attr recordingmode stats
attr source packetsReceived
attr title "Packets received per timeslot"
statistic Network.Users[9] packetDelayStat:stats
field count 0
field mean nan
field stddev nan
field min nan
field max nan
field sum 0
field sqrsum 0
attr "" ""
attr recordingmode stats
attr source packetDelay
attr title "Packet delay"
par Network.Users[10] typename "\"pecsn_project.User\""
par Network.Users[10] CQIdistribution "\"binomial\""
statistic Network.Users[10] throughputStat:stats
field count 700
field mean 0
field stddev 0
field min 0
field max 0
field sum 0
field sqrsum 0
attr "" ""
attr recordingmode stats
attr source throughput
attr title Throughput
statistic Network.Users[10] packetsReceivedStat:stats
field count 700
field mean 0
field stddev 0
field min 0
field max 0
field sum 0
field sqrsum 0
attr "" ""
attr recordingmode stats
attr source packetsReceived
attr title "Packets received per timeslot"
statistic Network.Users[10] packetDelayStat:stats
field count 0
field mean nan
field stddev nan
field min nan
field max nan
field sum 0
field sqrsum 0
attr "" ""
attr recordingmode stats
attr source packetDelay
attr title "Packet delay"
par Network.Users[11] typename "\"pecsn_project.User\""
par Network.Users[11] CQIdistribution "\"binomial\""
statistic Network.Users[11] throughputStat:stats
field count 700
field mean 0
field stddev 0
field min 0
field max 0
field sum 0
field sqrsum 0
attr "" ""
attr recordingmode stats
attr source throughput
attr title Throughput
statistic Network.Users[11] packetsReceivedStat:stats
field count 700
field mean 0
field stddev 0
field min 0
field max 0
field sum 0
field sqrsum 0
attr "" ""
attr recordingmode stats
attr source packetsReceived
attr title "Packets received per timeslot"
statistic Network.Users[11] packetDelayStat:stats
field count 0
field mean nan
field stddev nan
field min nan
field max nan
field sum 0
field sqrsum 0
attr "" ""
attr recordingmode stats
attr source packetDelay
attr title "Packet delay"
par Network.Users[12] typename "\"pecsn_project.User\""
par Network.Users[12] CQIdistribution "\"binomial\""
statistic Network.Users[12] throughputStat:stats
field count 700
field mean 0
field stddev 0
field min 0
field max 0
field sum 0
field sqrsum 0
attr "" ""
attr recordingmode stats
attr source throughput
attr title Throughput
statistic Network.Users[12] packetsReceivedStat:stats
field count 700
field mean 0
field stddev 0
field min 0
field max 0
field sum 0
field sqrsum 0
attr "" ""
attr recordingmode stats
attr source packetsReceived
attr title "Packets received per timeslot"
statistic Network.Users[12] packetDelayStat:stats
field count 0
field mean nan
field stddev nan
field min nan
field max nan
field sum 0
field sqrsum 0
attr "" ""
attr recordingmode stats
attr source packetDelay
attr title "Packet delay"
par Network.Users[13] typename "\"pecsn_project.User\""
par Network.Users[13] CQIdistribution "\"binomial\""
statistic Network.Users[13] throughputStat:stats
field count 700
field mean 0
field stddev 0
field min 0
field max 0
field sum 0
field sqrsum 0
attr "" ""
attr recordingmode stats
attr source throughput
attr title Throughput
statistic Network.Users[13] packetsReceivedStat:stats
field count 700
field mean 0
field stddev 0
field min 0
field max 0
field sum 0
field sqrsum 0
attr "" ""
attr recordingmode stats
attr source packetsReceived
attr title "Packets received per timeslot"
statistic Network.Users[13] packetDelayStat:stats
field count 0
field mean nan
field stddev nan
field min nan
field max nan
field sum 0
field sqrsum 0
attr "" ""
attr recordingmode stats
attr source packetDelay
attr title "Packet delay"
par Network.Users[14] typename "\"pecsn_project.User\""
par Network.Users[14] CQIdistribution "\"binomial\""
statistic Network.Users[14] throughputStat:stats
field count 700
field mean 0
field stddev 0
field min 0
field max 0
field sum 0
field sqrsum 0
attr "" ""
attr recordingmode stats
attr source throughput
attr title Throughput
statistic Network.Users[14] packetsReceivedStat:stats
field count 700
field mean 0
field stddev 0
field min 0
field max 0
field sum 0
field sqrsum 0
attr "" ""
attr recordingmode stats
attr source packetsReceived
attr title "Packets received per timeslot"
statistic Network.Users[14] packetDelayStat:stats
field count 0
field mean nan
field stddev nan
field min nan
field max nan
field sum 0
field sqrsum 0
attr "" ""
attr recordingmode stats
attr source packetDelay
attr title "Packet delay"
par Network.Users[15] typename "\"pecsn_project.User\""
par Network.Users[15] CQIdistribution "\"binomial\""
statistic Network.Users[15] throughputStat:stats
field count 700
field mean 0
field stddev 0
field min 0
field max 0
field sum 0
field sqrsum 0
attr "" ""
attr recordingmode stats
attr source throughput
attr title Throughput
statistic Network.Users[15] packetsReceivedStat:stats
field count 700
field mean 0
field stddev 0
field min 0
field max 0
field sum 0
field sqrsum 0
attr "" ""
attr recordingmode stats
attr source packetsReceived
attr title "Packets received per timeslot"
statistic Network.Users[15] packetDelayStat:stats
field count 0
field mean nan
field stddev nan
field min nan
field max nan
field sum 0
field sqrsum 0
attr "" ""
attr recordingmode stats
attr source packetDelay
attr title "Packet delay"
par Network.Users[16] typename "\"pecsn_project.User\""
par Network.Users[16] CQIdistribution "\"binomial\""
statistic Network.Users[16] throughputStat:stats
field count 700
field mean 0
field stddev 0
field min 0
field max 0
field sum 0
field sqrsum 0
attr "" ""
attr recordingmode stats
attr source throughput
attr title Throughput
statistic Network.Users[16] packetsReceivedStat:stats
field count 700
field mean 0
field stddev 0
field min 0
field max 0
field sum 0
field sqrsum 0
attr "" ""
attr recordingmode stats
attr source packetsReceived
attr title "Packets received per timeslot"
statistic Network.Users[16] packetDelayStat:stats
field count 0
field mean nan
field stddev nan
field min nan
field max nan
field sum 0
field sqrsum 0
attr "" ""
attr recordingmode stats
attr source packetDelay
attr title "Packet delay"
par Network.Users[17] typename "\"pecsn_project.User\""
par Network.Users[17] CQIdistribution "\"binomial\""
statistic Network.Users[17] throughputStat:stats
field count 700
field mean 0
field stddev 0
field min 0
field max 0
field sum 0
field sqrsum 0
attr "" ""
attr recordingmode stats
attr source throughput
attr title Throughput
statistic Network.Users[17] packetsReceivedStat:stats
field count 700
field mean 0
field stddev 0
field min 0
field max 0
field sum 0
field sqrsum 0
attr "" ""
attr recordingmode stats
attr source packetsReceived
attr title "Packets received per timeslot"
statistic Network.Users[17] packetDelayStat:stats
field count 0
field mean nan
field stddev nan
field min nan
field max nan
field sum 0
field sqrsum 0
attr "" ""
attr recordingmode stats
attr source packetDelay
attr title "Packet delay"
par Network.Users[18] typename "\"pecsn_project.User\""
par Network.Users[18] CQIdistribution "\"binomial\""
statistic Network.Users[18] throughputStat:stats
field count 700
field mean 0
field stddev 0
field min 0
field max 0
field sum 0
field sqrsum 0
attr "" ""
attr recordingmode stats
attr source throughput
attr title Throughput
statistic Network.Users[18] packetsReceivedStat:stats
field count 700
field mean 0
field stddev 0
field min 0
field max 0
field sum 0
field sqrsum 0
attr "" ""
attr recordingmode stats
attr source packetsReceived
attr title "Packets received per timeslot"
statistic Network.Users[18] packetDelayStat:stats
field count 0
field mean nan
field stddev nan
field min nan
field max nan
field sum 0
field sqrsum 0
attr "" ""
attr recordingmode stats
attr source packetDelay
attr title "Packet delay"
par Network.Users[19] typename "\"pecsn_project.User\""
par Network.Users[19] CQIdistribution "\"binomial\""
statistic Network.Users[19] throughputStat:stats
field count 700
field mean 0
field stddev 0
field min 0
field max 0
field sum 0
field sqrsum 0
attr "" ""
attr recordingmode stats
attr source throughput
attr title Throughput
statistic Network.Users[19] packetsReceivedStat:stats
field count 700
field mean 0
field stddev 0
field min 0
field max 0
field sum 0
field sqrsum 0
attr "" ""
attr recordingmode stats
attr source packetsReceived
attr title "Packets received per timeslot"
statistic Network.Users[19] packetDelayStat:stats
field count 0
field mean nan
field stddev nan
field min nan
field max nan
field sum 0
field sqrsum 0
attr "" ""
attr recordingmode stats
attr source packetDelay
attr title "Packet delay"
par Network.Users[20] typename "\"pecsn_project.User\""
par Network.Users[20] CQIdistribution "\"binomial\""
statistic Network.Users[20] throughputStat:stats
field count 700
field mean 0
field stddev 0
field min 0
field max 0
field sum 0
field sqrsum 0
attr "" ""
attr recordingmode stats
attr source throughput
attr title Throughput
statistic Network.Users[20] packetsReceivedStat:stats
field count 700
field mean 0
field stddev 0
field min 0
field max 0
field sum 0
field sqrsum 0
attr "" ""
attr recordingmode stats
attr source packetsReceived
attr title "Packets received per timeslot"
statistic Network.Users[20] packetDelayStat:stats
field count 0
field mean nan
field stddev nan
field min nan
field max nan
field sum 0
field sqrsum 0
attr "" ""
attr recordingmode stats
attr source packetDelay
attr title "Packet delay"
par Network.Users[21] typename "\"pecsn_project.User\""
par Network.Users[21] CQIdistribution "\"binomial\""
statistic Network.Users[21] throughputStat:stats
field count 700
field mean 0
field stddev 0
field min 0
field max 0
field sum 0
field sqrsum 0
attr "" ""
attr recordingmode stats
attr source throughput
attr title Throughput
statistic Network.Users[21] packetsReceivedStat:stats
field count 700
field mean 0
field stddev 0
field min 0
field max 0
field sum 0
field sqrsum 0
attr "" ""
attr recordingmode stats
attr source packetsReceived
attr title "Packets received per timeslot"
statistic Network.Users[21] packetDelayStat:stats
field count 0
field mean nan
field stddev nan
field min nan
field max nan
field sum 0
field sqrsum 0
attr "" ""
attr recordingmode stats
attr source packetDelay
attr title "Packet delay"
par Network.Users[22] typename "\"pecsn_project.User\""
par Network.Users[22] CQIdistribution "\"binomial\""
statistic Network.Users[22] throughputStat:stats
field count 700
field mean 0
field stddev 0
field min 0
field max 0
field sum 0
field sqrsum 0
attr "" ""
attr recordingmode stats
attr source throughput
attr title Throughput
statistic Network.Users[22] packetsReceivedStat:stats
field count 700
field mean 0
field stddev 0
field min 0
field max 0
field sum 0
field sqrsum 0
attr "" ""
attr recordingmode stats
attr source packetsReceived
attr title "Packets received per timeslot"
statistic Network.Users[22] packetDelayStat:stats
field count 0
field mean nan
field stddev nan
field min nan
field max nan
field sum 0
field sqrsum 0
attr "" ""
attr recordingmode stats
attr source packetDelay
attr title "Packet delay"
par Network.Users[23] typename "\"pecsn_project.User\""
par Network.Users[23] CQIdistribution "\"binomial\""
statistic Network.Users[23] throughputStat:stats
field count 700
field mean 0
field stddev 0
field min 0
field max 0
field sum 0
field sqrsum 0
attr "" ""
attr recordingmode stats
attr source throughput
attr title Throughput
statistic Network.Users[23] packetsReceivedStat:stats
field count 700
field mean 0
field stddev 0
field min 0
field max 0
field sum 0
field sqrsum 0
attr "" ""
attr recordingmode stats
attr source packetsReceived
attr title "Packets received per timeslot"
statistic Network.Users[23] packetDelayStat:stats
field count 0
field mean nan
field stddev nan
field min nan
field max nan
field sum 0
field sqrsum 0
attr "" ""
attr recordingmode stats
attr source packetDelay
attr title "Packet delay"
par Network.Users[24] typename "\"pecsn_project.User\""
par Network.Users[24] CQIdistribution "\"binomial\""
statistic Network.Users[24] throughputStat:stats
field count 700
field mean 0
field stddev 0
field min 0
field max 0
field sum 0
field sqrsum 0
attr "" ""
attr recordingmode stats
attr source throughput
attr title Throughput
statistic Network.Users[24] packetsReceivedStat:stats
field count 700
field mean 0
field stddev 0
field min 0
field max 0
field sum 0
field sqrsum 0
attr "" ""
attr recordingmode stats
attr source packetsReceived
attr title "Packets received per timeslot"
statistic Network.Users[24] packetDelayStat:stats
field count 0
field mean nan
field stddev nan
field min nan
field max nan
field sum 0
field sqrsum 0
attr "" ""
attr recordingmode stats
attr source packetDelay
attr title "Packet delay"
par Network.Users[25] typename "\"pecsn_project.User\""
par Network.Users[25] CQIdistribution "\"binomial\""
statistic Network.Users[25] throughputStat:stats
field count 700
field mean 0
field stddev 0
field min 0
field max 0
field sum 0
field sqrsum 0
attr "" ""
attr recordingmode stats
attr source throughput
attr title Throughput
statistic Network.Users[25] packetsReceivedStat:stats
field count 700
field mean 0
field stddev 0
field min 0
field max 0
field sum 0
field sqrsum 0
attr "" ""
attr recordingmode stats
attr source packetsReceived
attr title "Packets received per timeslot"
statistic Network.Users[25] packetDelayStat:stats
field count 0
field mean nan
field stddev nan
field min nan
field max nan
field sum 0
field sqrsum 0
attr "" ""
attr recordingmode stats
attr source packetDelay
attr title "Packet delay"
par Network.Users[26] typename "\"pecsn_project.User\""
par Network.Users[26] CQIdistribution "\"binomial\""
statistic Network.Users[26] throughputStat:stats
field count 700
field mean 0
field stddev 0
field min 0
field max 0
field sum 0
field sqrsum 0
attr "" ""
attr recordingmode stats
attr source throughput
attr title Throughput
statistic Network.Users[26] packetsReceivedStat:stats
field count 700
field mean 0
field stddev 0
field min 0
field max 0
field sum 0
field sqrsum 0
attr "" ""
attr recordingmode stats
attr source packetsReceived
attr title "Packets received per timeslot"
statistic Network.Users[26] packetDelayStat:stats
field count 0
field mean nan
field stddev nan
field min nan
field max nan
field sum 0
field sqrsum 0
attr "" ""
attr recordingmode stats
attr source packetDelay
attr title "Packet delay"
par Network.Users[27] typename "\"pecsn_project.User\""
par Network.Users[27] CQIdistribution "\"binomial\""
statistic Network.Users[27] throughputStat:stats
field count 700
field mean 0
field stddev 0
field min 0
field max 0
field sum 0
field sqrsum 0
attr "" ""
attr recordingmode stats
attr source throughput
attr title Throughput
statistic Network.Users[27] packetsReceivedStat:stats
field count 700
field mean 0
field stddev 0
field min 0
field max 0
field sum 0
field sqrsum 0
attr "" ""
attr recordingmode stats
attr source packetsReceived
attr title "Packets received per timeslot"
statistic Network.Users[27] packetDelayStat:stats
field count 0
field mean nan
field stddev nan
field min nan
field max nan
field sum 0
field sqrsum 0
attr "" ""
attr recordingmode stats
attr source packetDelay
attr title "Packet delay"
par Network.Users[28] typename "\"pecsn_project.User\""
par Network.Users[28] CQIdistribution "\"binomial\""
statistic Network.Users[28] throughputStat:stats
field count 700
field mean 0
field stddev 0
field min 0
field max 0
field sum 0
field sqrsum 0
attr "" ""
attr recordingmode stats
attr source throughput
attr title Throughput
statistic Network.Users[28] packetsReceivedStat:stats
field count 700
field mean 0
field stddev 0
field min 0
field max 0
field sum 0
field sqrsum 0
attr "" ""
attr recordingmode stats
attr source packetsReceived
attr title "Packets received per timeslot"
statistic Network.Users[28] packetDelayStat:stats
field count 0
field mean nan
field stddev nan
field min nan
field max nan
field sum 0
field sqrsum 0
attr "" ""
attr recordingmode stats
attr source packetDelay
attr title "Packet delay"
par Network.Users[29] typename "\"pecsn_project.User\""
par Network.Users[29] CQIdistribution "\"binomial\""
statistic Network.Users[29] throughputStat:stats
field count 700
field mean 0
field stddev 0
field min 0
field max 0
field sum 0
field sqrsum 0
attr "" ""
attr recordingmode stats
attr source throughput
attr title Throughput
statistic Network.Users[29] packetsReceivedStat:stats
field count 700
field mean 0
field stddev 0
field min 0
field max 0
field sum 0
field sqrsum 0
attr "" ""
attr recordingmode stats
attr source packetsReceived
attr title "Packets received per timeslot"
statistic Network.Users[29] packetDelayStat:stats
field count 0
field mean nan
field stddev nan
field min nan
field max nan
field sum 0
field sqrsum 0
attr "" ""
attr recordingmode stats
attr source packetDelay
attr title "Packet delay"
par Network.Users[30] typename "\"pecsn_project.User\""
par Network.Users[30] CQIdistribution "\"binomial\""
statistic Network.Users[30] throughputStat:stats
field count 700
field mean 0
field stddev 0
field min 0
field max 0
field sum 0
field sqrsum 0
attr "" ""
attr recordingmode stats
attr source throughput
attr title Throughput
statistic Network.Users[30] packetsReceivedStat:stats
field count 700
field mean 0
field stddev 0
field min 0
field max 0
field sum 0
field sqrsum 0
attr "" ""
attr recordingmode stats
attr source packetsReceived
attr title "Packets received per timeslot"
statistic Network.Users[30] packetDelayStat:stats
field count 0
field mean nan
field stddev nan
field min nan
field max nan
field sum 0
field sqrsum 0
attr "" ""
attr recordingmode stats
attr source packetDelay
attr title "Packet delay"
par Network.Users[31] typename "\"pecsn_project.User\""
par Network.Users[31] CQIdistribution "\"binomial\""
statistic Network.Users[31] throughputStat:stats
field count 700
field mean 0
field stddev 0
field min 0
field max 0
field sum 0
field sqrsum 0
attr "" ""
attr recordingmode stats
attr source throughput
attr title Throughput
statistic Network.Users[31] packetsReceivedStat:stats
field count 700
field mean 0
field stddev 0
field min 0
field max 0
field sum 0
field sqrsum 0
attr "" ""
attr recordingmode stats
attr source packetsReceived
attr title "Packets received per timeslot"
statistic Network.Users[31] packetDelayStat:stats
field count 0
field mean nan
field stddev nan
field min nan
field max nan
field sum 0
field sqrsum 0
attr "" ""
attr recordingmode stats
attr source packetDelay
attr title "Packet delay"
par Network.Users[32] typename "\"pecsn_project.User\""
par Network.Users[32] CQIdistribution "\"binomial\""
statistic Network.Users[32] throughputStat:stats
field count 700
field mean 0
field stddev 0
field min 0
field max 0
field sum 0
field sqrsum 0
attr "" ""
attr recordingmode stats
attr source throughput
attr title Throughput
statistic Network.Users[32] packetsReceivedStat:stats
field count 700
field mean 0
field stddev 0
field min 0
field max 0
field sum 0
field sqrsum 0
attr "" ""
attr recordingmode stats
attr source packetsReceived
attr title "Packets received per timeslot"
statistic Network.Users[32] packetDelayStat:stats
field count 0
field mean nan
field stddev nan
field min nan
field max nan
field sum 0
field sqrsum 0
attr "" ""
attr recordingmode stats
attr source packetDelay
attr title "Packet delay"
par Network.Users[33] typename "\"pecsn_project.User\""
par Network.Users[33] CQIdistribution "\"binomial\""
statistic Network.Users[33] throughputStat:stats
field count 700
field mean 0
field stddev 0
field min 0
field max 0
field sum 0
field sqrsum 0
attr "" ""
attr recordingmode stats
attr source throughput
attr title Throughput
statistic Network.Users[33] packetsReceivedStat:stats
field count 700
field mean 0
field stddev 0
field min 0
field max 0
field sum 0
field sqrsum 0
attr "" ""
attr recordingmode stats
attr source packetsReceived
attr title "Packets received per timeslot"
statistic Network.Users[33] packetDelayStat:stats
field count 0
field mean nan
field stddev nan
field min nan
field max nan
field sum 0
field sqrsum 0
attr "" ""
attr recordingmode stats
attr source packetDelay
attr title "Packet delay"
par Network.Users[34] typename "\"pecsn_project.User\""
par Network.Users[34] CQIdistribution "\"binomial\""
statistic Network.Users[34] throughputStat:stats
field count 700
field mean 0
field stddev 0
field min 0
field max 0
field sum 0
field sqrsum 0
attr "" ""
attr recordingmode stats
attr source throughput
attr title Throughput
statistic Network.Users[34] packetsReceivedStat:stats
field count 700
field mean 0
field stddev 0
field min 0
field max 0
field sum 0
field sqrsum 0
attr "" ""
attr recordingmode stats
attr source packetsReceived
attr title "Packets received per timeslot"
statistic Network.Users[34] packetDelayStat:stats
field count 0
field mean nan
field stddev nan
field min nan
field max nan
field sum 0
field sqrsum 0
attr "" ""
attr recordingmode stats
attr source packetDelay
attr title "Packet delay"
par Network.Users[35] typename "\"pecsn_project.User\""
par Network.Users[35] CQIdistribution "\"binomial\""
statistic Network.Users[35] throughputStat:stats
field count 700
field mean 0
field stddev 0
field min 0
field max 0
field sum 0
field sqrsum 0
attr "" ""
attr recordingmode stats
attr source throughput
attr title Throughput
statistic Network.Users[35] packetsReceivedStat:stats
field count 700
field mean 0
field stddev 0
field min 0
field max 0
field sum 0
field sqrsum 0
attr "" ""
attr recordingmode stats
attr source packetsReceived
attr title "Packets received per timeslot"
statistic Network.Users[35] packetDelayStat:stats
field count 0
field mean nan
field stddev nan
field min nan
field max nan
field sum 0
field sqrsum 0
attr "" ""
attr recordingmode stats
attr source packetDelay
attr title "Packet delay"
par Network.Users[36] typename "\"pecsn_project.User\""
par Network.Users[36] CQIdistribution "\"binomial\""
statistic Network.Users[36] throughputStat:stats
field count 700
field mean 0
field stddev 0
field min 0
field max 0
field sum 0
field sqrsum 0
attr "" ""
attr recordingmode stats
attr source throughput
attr title Throughput
statistic Network.Users[36] packetsReceivedStat:stats
field count 700
field mean 0
field stddev 0
field min 0
field max 0
field sum 0
field sqrsum 0
attr "" ""
attr recordingmode stats
attr source packetsReceived
attr title "Packets received per timeslot"
statistic Network.Users[36] packetDelayStat:stats
field count 0
field mean nan
field stddev nan
field min nan
field max nan
field sum 0
field sqrsum 0
attr "" ""
attr recordingmode stats
attr source packetDelay
attr title "Packet delay"
par Network.Users[37] typename "\"pecsn_project.User\""
par Network.Users[37] CQIdistribution "\"binomial\""
statistic Network.Users[37] throughputStat:stats
field count 700
field mean 0
field stddev 0
field min 0
field max 0
field sum 0
field sqrsum 0
attr "" ""
attr recordingmode stats
attr source throughput
attr title Throughput
statistic Network.Users[37] packetsReceivedStat:stats
field count 700
field mean 0
field stddev 0
field min 0
field max 0
field sum 0
field sqrsum 0
attr "" ""
attr recordingmode stats
attr source packetsReceived
attr title "Packets received per timeslot"
statistic Network.Users[37] packetDelayStat:stats
field count 0
field mean nan
field stddev nan
field min nan
field max nan
field sum 0
field sqrsum 0
attr "" ""
attr recordingmode stats
attr source packetDelay
attr title "Packet delay"
par Network.Users[38] typename "\"pecsn_project.User\""
par Network.Users[38] CQIdistribution "\"binomial\""
statistic Network.Users[38] throughputStat:stats
field count 700
field mean 0
field stddev 0
field min 0
field max 0
field sum 0
field sqrsum 0
attr "" ""
attr recordingmode stats
attr source throughput
attr title Throughput
statistic Network.Users[38] packetsReceivedStat:stats
field count 700
field mean 0
field stddev 0
field min 0
field max 0
field sum 0
field sqrsum 0
attr "" ""
attr recordingmode stats
attr source packetsReceived
attr title "Packets received per timeslot"
statistic Network.Users[38] packetDelayStat:stats
field count 0
field mean nan
field stddev nan
field min nan
field max nan
field sum 0
field sqrsum 0
attr "" ""
attr recordingmode stats
attr source packetDelay
attr title "Packet delay"
par Network.Users[39] typename "\"pecsn_project.User\""
par Network.Users[39] CQIdistribution "\"binomial\""
statistic Network.Users[39] throughputStat:stats
field count 700
field mean 0
field stddev 0
field min 0
field max 0
field sum 0
field sqrsum 0
attr "" ""
attr recordingmode stats
attr source throughput
attr title Throughput
statistic Network.Users[39] packetsReceivedStat:stats
field count 700
field mean 0
field stddev 0
field min 0
field max 0
field sum 0
field sqrsum 0
attr "" ""
attr recordingmode stats
attr source packetsReceived
attr title "Packets received per timeslot"
statistic Network.Users[39] packetDelayStat:stats
field count 0
field mean nan
field stddev nan
field min nan
field max nan
field sum 0
field sqrsum 0
attr "" ""
attr recordingmode stats
attr source packetDelay
attr title "Packet delay"
par Network.Users[40] typename "\"pecsn_project.User\""
par Network.Users[40] CQIdistribution "\"binomial\""
statistic Network.Users[40] throughputStat:stats
field count 700
field mean 0
field stddev 0
field min 0
field max 0
field sum 0
field sqrsum 0
attr "" ""
attr recordingmode stats
attr source throughput
attr title Throughput
statistic Network.Users[40] packetsReceivedStat:stats
field count 700
field mean 0
field stddev 0
field min 0
field max 0
field sum 0
field sqrsum 0
attr "" ""
attr recordingmode stats
attr source packetsReceived
attr title "Packets received per timeslot"
statistic Network.Users[40] packetDelayStat:stats
field count 0
field mean nan
field stddev nan
field min nan
field max nan
field sum 0
field sqrsum 0
attr "" ""
attr recordingmode stats
attr source packetDelay
attr title "Packet delay"
par Network.Users[41] typename "\"pecsn_project.User\""
par Network.Users[41] CQIdistribution "\"binomial\""
statistic Network.Users[41] throughputStat:stats
field count 700
field mean 0
field stddev 0
field min 0
field max 0
field sum 0
field sqrsum 0
attr "" ""
attr recordingmode stats
attr source throughput
attr title Throughput
statistic Network.Users[41] packetsReceivedStat:stats
field count 700
field mean 0
field stddev 0
field min 0
field max 0
field sum 0
field sqrsum 0
attr "" ""
attr recordingmode stats
attr source packetsReceived
attr title "Packets received per timeslot"
statistic Network.Users[41] packetDelayStat:stats
field count 0
field mean nan
field stddev nan
field min nan
field max nan
field sum 0
field sqrsum 0
attr "" ""
attr recordingmode stats
attr source packetDelay
attr title "Packet delay"
par Network.Users[42] typename "\"pecsn_project.User\""
par Network.Users[42] CQIdistribution "\"binomial\""
statistic Network.Users[42] throughputStat:stats
field count 700
field mean 0
field stddev 0
field min 0
field max 0
field sum 0
field sqrsum 0
attr "" ""
attr recordingmode stats
attr source throughput
attr title Throughput
statistic Network.Users[42] packetsReceivedStat:stats
field count 700
field mean 0
field stddev 0
field min 0
field max 0
field sum 0
field sqrsum 0
attr "" ""
attr recordingmode stats
attr source packetsReceived
attr title "Packets received per timeslot"
statistic Network.Users[42] packetDelayStat:stats
field count 0
field mean nan
field stddev nan
field min nan
field max nan
field sum 0
field sqrsum 0
attr "" ""
attr recordingmode stats
attr source packetDelay
attr title "Packet delay"
par Network.Users[43] typename "\"pecsn_project.User\""
par Network.Users[43] CQIdistribution "\"binomial\""
statistic Network.Users[43] throughputStat:stats
field count 700
field mean 0
field stddev 0
field min 0
field max 0
field sum 0
field sqrsum 0
attr "" ""
attr recordingmode stats
attr source throughput
attr title Throughput
statistic Network.Users[43] packetsReceivedStat:stats
field count 700
field mean 0
field stddev 0
field min 0
field max 0
field sum 0
field sqrsum 0
attr "" ""
attr recordingmode stats
attr source packetsReceived
attr title "Packets received per timeslot"
statistic Network.Users[43] packetDelayStat:stats
field count 0
field mean nan
field stddev nan
field min nan
field max nan
field sum 0
field sqrsum 0
attr "" ""
attr recordingmode stats
attr source packetDelay
attr title "Packet delay"
par Network.Users[44] typename "\"pecsn_project.User\""
par Network.Users[44] CQIdistribution "\"binomial\""
statistic Network.Users[44] throughputStat:stats
field count 700
field mean 0
field stddev 0
field min 0
field max 0
field sum 0
field sqrsum 0
attr "" ""
attr recordingmode stats
attr source throughput
attr title Throughput
statistic Network.Users[44] packetsReceivedStat:stats
field count 700
field mean 0
field stddev 0
field min 0
field max 0
field sum 0
field sqrsum 0
attr "" ""
attr recordingmode stats
attr source packetsReceived
attr title "Packets received per timeslot"
statistic Network.Users[44] packetDelayStat:stats
field count 0
field mean nan
field stddev nan
field min nan
field max nan
field sum 0
field sqrsum 0
attr "" ""
attr recordingmode stats
attr source packetDelay
attr title "Packet delay"
par Network.Users[45] typename "\"pecsn_project.User\""
par Network.Users[45] CQIdistribution "\"binomial\""
statistic Network.Users[45] throughputStat:stats
field count 700
field mean 0
field stddev 0
field min 0
field max 0
field sum 0
field sqrsum 0
attr "" ""
attr recordingmode stats
attr source throughput
attr title Throughput
statistic Network.Users[45] packetsReceivedStat:stats
field count 700
field mean 0
field stddev 0
field min 0
field max 0
field sum 0
field sqrsum 0
attr "" ""
attr recordingmode stats
attr source packetsReceived
attr title "Packets received per timeslot"
statistic Network.Users[45] packetDelayStat:stats
field count 0
field mean nan
field stddev nan
field min nan
field max nan
field sum 0
field sqrsum 0
attr "" ""
attr recordingmode stats
attr source packetDelay
attr title "Packet delay"
par Network.Users[46] typename "\"pecsn_project.User\""
par Network.Users[46] CQIdistribution "\"binomial\""
statistic Network.Users[46] throughputStat:stats
field count 700
field mean 0
field stddev 0
field min 0
field max 0
field sum 0
field sqrsum 0
attr "" ""
attr recordingmode stats
attr source throughput
attr title Throughput
statistic Network.Users[46] packetsReceivedStat:stats
field count 700
field mean 0
field stddev 0
field min 0
field max 0
field sum 0
field sqrsum 0
attr "" ""
attr recordingmode stats
attr source packetsReceived
attr title "Packets received per timeslot"
statistic Network.Users[46] packetDelayStat:stats
field count 0
field mean nan
field stddev nan
field min nan
field max nan
field sum 0
field sqrsum 0
attr "" ""
attr recordingmode stats
attr source packetDelay
attr title "Packet delay"
par Network.Users[47] typename "\"pecsn_project.User\""
par Network.Users[47] CQIdistribution "\"binomial\""
statistic Network.Users[47] throughputStat:stats
field count 700
field mean 0
field stddev 0
field min 0
field max 0
field sum 0
field sqrsum 0
attr "" ""
attr recordingmode stats
attr source throughput
attr title Throughput
statistic Network.Users[47] packetsReceivedStat:stats
field count 700
field mean 0
field stddev 0
field min 0
field max 0
field sum 0
field sqrsum 0
attr "" ""
attr recordingmode stats
attr source packetsReceived
attr title "Packets received per timeslot"
statistic Network.Users[47] packetDelayStat:stats
field count 0
field mean nan
field stddev nan
field min nan
field max nan
field sum 0
field sqrsum 0
attr "" ""
attr recordingmode stats
attr source packetDelay
attr title "Packet delay"
par Network.Users[48] typename "\"pecsn_project.User\""
par Network.Users[48] CQIdistribution "\"binomial\""
statistic Network.Users[48] throughputStat:stats
field count 700
field mean 0
field stddev 0
field min 0
field max 0
field sum 0
field sqrsum 0
attr "" ""
attr recordingmode stats
attr source throughput
attr title Throughput
statistic Network.Users[48] packetsReceivedStat:stats
field count 700
field mean 0
field stddev 0
field min 0
field max 0
field sum 0
field sqrsum 0
attr "" ""
attr recordingmode stats
attr source packetsReceived
attr title "Packets received per timeslot"
statistic Network.Users[48] packetDelayStat:stats
field count 0
field mean nan
field stddev nan
field min nan
field max nan
field sum 0
field sqrsum 0
attr "" ""
attr recordingmode stats
attr source packetDelay
attr title "Packet delay"
par Network.Users[49] typename "\"pecsn_project.User\""
par Network.Users[49] CQIdistribution "\"binomial\""
statistic Network.Users[49] throughputStat:stats
field count 700
field mean 0
field stddev 0
field min 0
field max 0
field sum 0
field sqrsum 0
attr "" ""
attr recordingmode stats
attr source throughput
attr title Throughput
statistic Network.Users[49] packetsReceivedStat:stats
field count 700
field mean 0
field stddev 0
field min 0
field max 0
field sum 0
field sqrsum 0
attr "" ""
attr recordingmode stats
attr source packetsReceived
attr title "Packets received per timeslot"
statistic Network.Users[49] packetDelayStat:stats
field count 0
field mean nan
field stddev nan
field min nan
field max nan
field sum 0
field sqrsum 0
attr "" ""
attr recordingmode stats
attr source packetDelay
attr title "Packet delay"
par Network.Users[50] typename "\"pecsn_project.User\""
par Network.Users[50] CQIdistribution "\"binomial\""
statistic Network.Users[50] throughputStat:stats
field count 700
field mean 0
field stddev 0
field min 0
field max 0
field sum 0
field sqrsum 0
attr "" ""
attr recordingmode stats
attr source throughput
attr title Throughput
statistic Network.Users[50] packetsReceivedStat:stats
field count 700
field mean 0
field stddev 0
field min 0
field max 0
field sum 0
field sqrsum 0
attr "" ""
attr recordingmode stats
attr source packetsReceived
attr title "Packets received per timeslot"
statistic Network.Users[50] packetDelayStat:stats
field count 0
field mean nan
field stddev nan
field min nan
field max nan
field sum 0
field sqrsum 0
attr "" ""
attr recordingmode stats
attr source packetDelay
attr title "Packet delay"
par Network.Users[51] typename "\"pecsn_project.User\""
par Network.Users[51] CQIdistribution "\"binomial\""
statistic Network.Users[51] throughputStat:stats
field count 700
field mean 0
field stddev 0
field min 0
field max 0
field sum 0
field sqrsum 0
attr "" ""
attr recordingmode stats
attr source throughput
attr title Throughput
statistic Network.Users[51] packetsReceivedStat:stats
field count 700
field mean 0
field stddev 0
field min 0
field max 0
field sum 0
field sqrsum 0
attr "" ""
attr recordingmode stats
attr source packetsReceived
attr title "Packets received per timeslot"
statistic Network.Users[51] packetDelayStat:stats
field count 0
field mean nan
field stddev nan
field min nan
field max nan
field sum 0
field sqrsum 0
attr "" ""
attr recordingmode stats
attr source packetDelay
attr title "Packet delay"
par Network.Users[52] typename "\"pecsn_project.User\""
par Network.Users[52] CQIdistribution "\"binomial\""
statistic Network.Users[52] throughputStat:stats
field count 700
field mean 0
field stddev 0
field min 0
field max 0
field sum 0
field sqrsum 0
attr "" ""
attr recordingmode stats
attr source throughput
attr title Throughput
statistic Network.Users[52] packetsReceivedStat:stats
field count 700
field mean 0
field stddev 0
field min 0
field max 0
field sum 0
field sqrsum 0
attr "" ""
attr recordingmode stats
attr source packetsReceived
attr title "Packets received per timeslot"
statistic Network.Users[52] packetDelayStat:stats
field count 0
field mean nan
field stddev nan
field min nan
field max nan
field sum 0
field sqrsum 0
attr "" ""
attr recordingmode stats
attr source packetDelay
attr title "Packet delay"
par Network.Users[53] typename "\"pecsn_project.User\""
par Network.Users[53] CQIdistribution "\"binomial\""
statistic Network.Users[53] throughputStat:stats
field count 700
field mean 0
field stddev 0
field min 0
field max 0
field sum 0
field sqrsum 0
attr "" ""
attr recordingmode stats
attr source throughput
attr title Throughput
statistic Network.Users[53] packetsReceivedStat:stats
field count 700
field mean 0
field stddev 0
field min 0
field max 0
field sum 0
field sqrsum 0
attr "" ""
attr recordingmode stats
attr source packetsReceived
attr title "Packets received per timeslot"
statistic Network.Users[53] packetDelayStat:stats
field count 0
field mean nan
field stddev nan
field min nan
field max nan
field sum 0
field sqrsum 0
attr "" ""
attr recordingmode stats
attr source packetDelay
attr title "Packet delay"
par Network.Users[54] typename "\"pecsn_project.User\""
par Network.Users[54] CQIdistribution "\"binomial\""
statistic Network.Users[54] throughputStat:stats
field count 700
field mean 0
field stddev 0
field min 0
field max 0
field sum 0
field sqrsum 0
attr "" ""
attr recordingmode stats
attr source throughput
attr title Throughput
statistic Network.Users[54] packetsReceivedStat:stats
field count 700
field mean 0
field stddev 0
field min 0
field max 0
field sum 0
field sqrsum 0
attr "" ""
attr recordingmode stats
attr source packetsReceived
attr title "Packets received per timeslot"
statistic Network.Users[54] packetDelayStat:stats
field count 0
field mean nan
field stddev nan
field min nan
field max nan
field sum 0
field sqrsum 0
attr "" ""
attr recordingmode stats
attr source packetDelay
attr title "Packet delay"
par Network.Users[55] typename "\"pecsn_project.User\""
par Network.Users[55] CQIdistribution "\"binomial\""
statistic Network.Users[55] throughputStat:stats
field count 700
field mean 0
field stddev 0
field min 0
field max 0
field sum 0
field sqrsum 0
attr "" ""
attr recordingmode stats
attr source throughput
attr title Throughput
statistic Network.Users[55] packetsReceivedStat:stats
field count 700
field mean 0
field stddev 0
field min 0
field max 0
field sum 0
field sqrsum 0
attr "" ""
attr recordingmode stats
attr source packetsReceived
attr title "Packets received per timeslot"
statistic Network.Users[55] packetDelayStat:stats
field count 0
field mean nan
field stddev nan
field min nan
field max nan
field sum 0
field sqrsum 0
attr "" ""
attr recordingmode stats
attr source packetDelay
attr title "Packet delay"
par Network.Users[56] typename "\"pecsn_project.User\""
par Network.Users[56] CQIdistribution "\"binomial\""
statistic Network.Users[56] throughputStat:stats
field count 700
field mean 0
field stddev 0
field min 0
field max 0
field sum 0
field sqrsum 0
attr "" ""
attr recordingmode stats
attr source throughput
attr title Throughput
statistic Network.Users[56] packetsReceivedStat:stats
field count 700
field mean 0
field stddev 0
field min 0
field max 0
field sum 0
field sqrsum 0
attr "" ""
attr recordingmode stats
attr source packetsReceived
attr title "Packets received per timeslot"
statistic Network.Users[56] packetDelayStat:stats
field count 0
field mean nan
field stddev nan
field min nan
field max nan
field sum 0
field sqrsum 0
attr "" ""
attr recordingmode stats
attr source packetDelay
attr title "Packet delay"
par Network.Users[57] typename "\"pecsn_project.User\""
par Network.Users[57] CQIdistribution "\"binomial\""
statistic Network.Users[57] throughputStat:stats
field count 700
field mean 0
field stddev 0
field min 0
field max 0
field sum 0
field sqrsum 0
attr "" ""
attr recordingmode stats
attr source throughput
attr title Throughput
statistic Network.Users[57] packetsReceivedStat:stats
field count 700
field mean 0
field stddev 0
field min 0
field max 0
field sum 0
field sqrsum 0
attr "" ""
attr recordingmode stats
attr source packetsReceived
attr title "Packets received per timeslot"
statistic Network.Users[57] packetDelayStat:stats
field count 0
field mean nan
field stddev nan
field min nan
field max nan
field sum 0
field sqrsum 0
attr "" ""
attr recordingmode stats
attr source packetDelay
attr title "Packet delay"
par Network.Users[58] typename "\"pecsn_project.User\""
par Network.Users[58] CQIdistribution "\"binomial\""
statistic Network.Users[58] throughputStat:stats
field count 700
field mean 0
field stddev 0
field min 0
field max 0
field sum 0
field sqrsum 0
attr "" ""
attr recordingmode stats
attr source throughput
attr title Throughput
statistic Network.Users[58] packetsReceivedStat:stats
field count 700
field mean 0
field stddev 0
field min 0
field max 0
field sum 0
field sqrsum 0
attr "" ""
attr recordingmode stats
attr source packetsReceived
attr title "Packets received per timeslot"
statistic Network.Users[58] packetDelayStat:stats
field count 0
field mean nan
field stddev nan
field min nan
field max nan
field sum 0
field sqrsum 0
attr "" ""
attr recordingmode stats
attr source packetDelay
attr title "Packet delay"
par Network.Users[59] typename "\"pecsn_project.User\""
par Network.Users[59] CQIdistribution "\"binomial\""
statistic Network.Users[59] throughputStat:stats
field count 700
field mean 0
field stddev 0
field min 0
field max 0
field sum 0
field sqrsum 0
attr "" ""
attr recordingmode stats
attr source throughput
attr title Throughput
statistic Network.Users[59] packetsReceivedStat:stats
field count 700
field mean 0
field stddev 0
field min 0
field max 0
field sum 0
field sqrsum 0
attr "" ""
attr recordingmode stats
attr source packetsReceived
attr title "Packets received per timeslot"
statistic Network.Users[59] packetDelayStat:stats
field count 0
field mean nan
field stddev nan
field min nan
field max nan
field sum 0
field sqrsum 0
attr "" ""
attr recordingmode stats
attr source packetDelay
attr title "Packet delay"
par Network.Users[60] typename "\"pecsn_project.User\""
par Network.Users[60] CQIdistribution "\"binomial\""
statistic Network.Users[60] throughputStat:stats
field count 700
field mean 0
field stddev 0
field min 0
field max 0
field sum 0
field sqrsum 0
attr "" ""
attr recordingmode stats
attr source throughput
attr title Throughput
statistic Network.Users[60] packetsReceivedStat:stats
field count 700
field mean 0
field stddev 0
field min 0
field max 0
field sum 0
field sqrsum 0
attr "" ""
attr recordingmode stats
attr source packetsReceived
attr title "Packets received per timeslot"
statistic Network.Users[60] packetDelayStat:stats
field count 0
field mean nan
field stddev nan
field min nan
field max nan
field sum 0
field sqrsum 0
attr "" ""
attr recordingmode stats
attr source packetDelay
attr title "Packet delay"
par Network.Users[61] typename "\"pecsn_project.User\""
par Network.Users[61] CQIdistribution "\"binomial\""
statistic Network.Users[61] throughputStat:stats
field count 700
field mean 0
field stddev 0
field min 0
field max 0
field sum 0
field sqrsum 0
attr "" ""
attr recordingmode stats
attr source throughput
attr title Throughput
statistic Network.Users[61] packetsReceivedStat:stats
field count 700
field mean 0
field stddev 0
field min 0
field max 0
field sum 0
field sqrsum 0
attr "" ""
attr recordingmode stats
attr source packetsReceived
attr title "Packets received per timeslot"
statistic Network.Users[61] packetDelayStat:stats
field count 0
field mean nan
field stddev nan
field min nan
field max nan
field sum 0
field sqrsum 0
attr "" ""
attr recordingmode stats
attr source packetDelay
attr title "Packet delay"
par Network.Users[62] typename "\"pecsn_project.User\""
par Network.Users[62] CQIdistribution "\"binomial\""
statistic Network.Users[62] throughputStat:stats
field count 700
field mean 0
field stddev 0
field min 0
field max 0
field sum 0
field sqrsum 0
attr "" ""
attr recordingmode stats
attr source throughput
attr title Throughput
statistic Network.Users[62] packetsReceivedStat:stats
field count 700
field mean 0
field stddev 0
field min 0
field max 0
field sum 0
field sqrsum 0
attr "" ""
attr recordingmode stats
attr source packetsReceived
attr title "Packets received per timeslot"
statistic Network.Users[62] packetDelayStat:stats
field count 0
field mean nan
field stddev nan
field min nan
field max nan
field sum 0
field sqrsum 0
attr "" ""
attr recordingmode stats
attr source packetDelay
attr title "Packet delay"
par Network.Users[63] typename "\"pecsn_project.User\""
par Network.Users[63] CQIdistribution "\"binomial\""
statistic Network.Users[63] throughputStat:stats
field count 700
field mean 0
field stddev 0
field min 0
field max 0
field sum 0
field sqrsum 0
attr "" ""
attr recordingmode stats
attr source throughput
attr title Throughput
statistic Network.Users[63] packetsReceivedStat:stats
field count 700
field mean 0
field stddev 0
field min 0
field max 0
field sum 0
field sqrsum 0
attr "" ""
attr recordingmode stats
attr source packetsReceived
attr title "Packets received per timeslot"
statistic Network.Users[63] packetDelayStat:stats
field count 0
field mean nan
field stddev nan
field min nan
field max nan
field sum 0
field sqrsum 0
attr "" ""
attr recordingmode stats
attr source packetDelay
attr title "Packet delay"
par Network.Users[64] typename "\"pecsn_project.User\""
par Network.Users[64] CQIdistribution "\"binomial\""
statistic Network.Users[64] throughputStat:stats
field count 700
field mean 0
field stddev 0
field min 0
field max 0
field sum 0
field sqrsum 0
attr "" ""
attr recordingmode stats
attr source throughput
attr title Throughput
statistic Network.Users[64] packetsReceivedStat:stats
field count 700
field mean 0
field stddev 0
field min 0
field max 0
field sum 0
field sqrsum 0
attr "" ""
attr recordingmode stats
attr source packetsReceived
attr title "Packets received per timeslot"
statistic Network.Users[64] packetDelayStat:stats
field count 0
field mean nan
field stddev nan
field min nan
field max nan
field sum 0
field sqrsum 0
attr "" ""
attr recordingmode stats
attr source packetDelay
attr title "Packet delay"
par Network.Users[65] typename "\"pecsn_project.User\""
par Network.Users[65] CQIdistribution "\"binomial\""
statistic Network.Users[65] throughputStat:stats
field count 700
field mean 0
field stddev 0
field min 0
field max 0
field sum 0
field sqrsum 0
attr "" ""
attr recordingmode stats
attr source throughput
attr title Throughput
statistic Network.Users[65] packetsReceivedStat:stats
field count 700
field mean 0
field stddev 0
field min 0
field max 0
field sum 0
field sqrsum 0
attr "" ""
attr recordingmode stats
attr source packetsReceived
attr title "Packets received per timeslot"
statistic Network.Users[65] packetDelayStat:stats
field count 0
field mean nan
field stddev nan
field min nan
field max nan
field sum 0
field sqrsum 0
attr "" ""
attr recordingmode stats
attr source packetDelay
attr title "Packet delay"
par Network.Users[66] typename "\"pecsn_project.User\""
par Network.Users[66] CQIdistribution "\"binomial\""
statistic Network.Users[66] throughputStat:stats
field count 700
field mean 0
field stddev 0
field min 0
field max 0
field sum 0
field sqrsum 0
attr "" ""
attr recordingmode stats
attr source throughput
attr title Throughput
statistic Network.Users[66] packetsReceivedStat:stats
field count 700
field mean 0
field stddev 0
field min 0
field max 0
field sum 0
field sqrsum 0
attr "" ""
attr recordingmode stats
attr source packetsReceived
attr title "Packets received per timeslot"
statistic Network.Users[66] packetDelayStat:stats
field count 0
field mean nan
field stddev nan
field min nan
field max nan
field sum 0
field sqrsum 0
attr "" ""
attr recordingmode stats
attr source packetDelay
attr title "Packet delay"
par Network.Users[67] typename "\"pecsn_project.User\""
par Network.Users[67] CQIdistribution "\"binomial\""
statistic Network.Users[67] throughputStat:stats
field count 700
field mean 0
field stddev 0
field min 0
field max 0
field sum 0
field sqrsum 0
attr "" ""
attr recordingmode stats
attr source throughput
attr title Throughput
statistic Network.Users[67] packetsReceivedStat:stats
field count 700
field mean 0
field stddev 0
field min 0
field max 0
field sum 0
field sqrsum 0
attr "" ""
attr recordingmode stats
attr source packetsReceived
attr title "Packets received per timeslot"
statistic Network.Users[67] packetDelayStat:stats
field count 0
field mean nan
field stddev nan
field min nan
field max nan
field sum 0
field sqrsum 0
attr "" ""
attr recordingmode stats
attr source packetDelay
attr title "Packet delay"
par Network.Users[68] typename "\"pecsn_project.User\""
par Network.Users[68] CQIdistribution "\"binomial\""
statistic Network.Users[68] throughputStat:stats
field count 700
field mean 0
field stddev 0
field min 0
field max 0
field sum 0
field sqrsum 0
attr "" ""
attr recordingmode stats
attr source throughput
attr title Throughput
statistic Network.Users[68] packetsReceivedStat:stats
field count 700
field mean 0
field stddev 0
field min 0
field max 0
field sum 0
field sqrsum 0
attr "" ""
attr recordingmode stats
attr source packetsReceived
attr title "Packets received per timeslot"
statistic Network.Users[68] packetDelayStat:stats
field count 0
field mean nan
field stddev nan
field min nan
field max nan
field sum 0
field sqrsum 0
attr "" ""
attr recordingmode stats
attr source packetDelay
attr title "Packet delay"
par Network.Users[69] typename "\"pecsn_project.User\""
par Network.Users[69] CQIdistribution "\"binomial\""
statistic Network.Users[69] throughputStat:stats
field count 700
field mean 0
field stddev 0
field min 0
field max 0
field sum 0
field sqrsum 0
attr "" ""
attr recordingmode stats
attr source throughput
attr title Throughput
statistic Network.Users[69] packetsReceivedStat:stats
field count 700
field mean 0
field stddev 0
field min 0
field max 0
field sum 0
field sqrsum 0
attr "" ""
attr recordingmode stats
attr source packetsReceived
attr title "Packets received per timeslot"
statistic Network.Users[69] packetDelayStat:stats
field count 0
field mean nan
field stddev nan
field min nan
field max nan
field sum 0
field sqrsum 0
attr "" ""
attr recordingmode stats
attr source packetDelay
attr title "Packet delay"
par Network.Users[70] typename "\"pecsn_project.User\""
par Network.Users[70] CQIdistribution "\"binomial\""
statistic Network.Users[70] throughputStat:stats
field count 700
field mean 0
field stddev 0
field min 0
field max 0
field sum 0
field sqrsum 0
attr "" ""
attr recordingmode stats
attr source throughput
attr title Throughput
statistic Network.Users[70] packetsReceivedStat:stats
field count 700
field mean 0
field stddev 0
field min 0
field max 0
field sum 0
field sqrsum 0
attr "" ""
attr recordingmode stats
attr source packetsReceived
attr title "Packets received per timeslot"
statistic Network.Users[70] packetDelayStat:stats
field count 0
field mean nan
field stddev nan
field min nan
field max nan
field sum 0
field sqrsum 0
attr "" ""
attr recordingmode stats
attr source packetDelay
attr title "Packet delay"
par Network.Users[71] typename "\"pecsn_project.User\""
par Network.Users[71] CQIdistribution "\"binomial\""
statistic Network.Users[71] throughputStat:stats
field count 700
field mean 0
field stddev 0
field min 0
field max 0
field sum 0
field sqrsum 0
attr "" ""
attr recordingmode stats
attr source throughput
attr title Throughput
statistic Network.Users[71] packetsReceivedStat:stats
field count 700
field mean 0
field stddev 0
field min 0
field max 0
field sum 0
field sqrsum 0
attr "" ""
attr recordingmode stats
attr source packetsReceived
attr title "Packets received per timeslot"
statistic Network.Users[71] packetDelayStat:stats
field count 0
field mean nan
field stddev nan
field min nan
field max nan
field sum 0
field sqrsum 0
attr "" ""
attr recordingmode stats
attr source packetDelay
attr title "Packet delay"
par Network.Users[72] typename "\"pecsn_project.User\""
par Network.Users[72] CQIdistribution "\"binomial\""
statistic Network.Users[72] throughputStat:stats
field count 700
field mean 0
field stddev 0
field min 0
field max 0
field sum 0
field sqrsum 0
attr "" ""
attr recordingmode stats
attr source throughput
attr title Throughput
statistic Network.Users[72] packetsReceivedStat:stats
field count 700
field mean 0
field stddev 0
field min 0
field max 0
field sum 0
field sqrsum 0
attr "" ""
attr recordingmode stats
attr source packetsReceived
attr title "Packets received per timeslot"
statistic Network.Users[72] packetDelayStat:stats
field count 0
field mean nan
field stddev nan
field min nan
field max nan
field sum 0
field sqrsum 0
attr "" ""
attr recordingmode stats
attr source packetDelay
attr title "Packet delay"
par Network.Users[73] typename "\"pecsn_project.User\""
par Network.Users[73] CQIdistribution "\"binomial\""
statistic Network.Users[73] throughputStat:stats
field count 700
field mean 0
field stddev 0
field min 0
field max 0
field sum 0
field sqrsum 0
attr "" ""
attr recordingmode stats
attr source throughput
attr title Throughput
statistic Network.Users[73] packetsReceivedStat:stats
field count 700
field mean 0
field stddev 0
field min 0
field max 0
field sum 0
field sqrsum 0
attr "" ""
attr recordingmode stats
attr source packetsReceived
attr title "Packets received per timeslot"
statistic Network.Users[73] packetDelayStat:stats
field count 0
field mean nan
field stddev nan
field min nan
field max nan
field sum 0
field sqrsum 0
attr "" ""
attr recordingmode stats
attr source packetDelay
attr title "Packet delay"
par Network.Users[74] typename "\"pecsn_project.User\""
par Network.Users[74] CQIdistribution "\"binomial\""
statistic Network.Users[74] throughputStat:stats
field count 700
field mean 0
field stddev 0
field min 0
field max 0
field sum 0
field sqrsum 0
attr "" ""
attr recordingmode stats
attr source throughput
attr title Throughput
statistic Network.Users[74] packetsReceivedStat:stats
field count 700
field mean 0
field stddev 0
field min 0
field max 0
field sum 0
field sqrsum 0
attr "" ""
attr recordingmode stats
attr source packetsReceived
attr title "Packets received per timeslot"
statistic Network.Users[74] packetDelayStat:stats
field count 0
field mean nan
field stddev nan
field min nan
field max nan
field sum 0
field sqrsum 0
attr "" ""
attr recordingmode stats
attr source packetDelay
attr title "Packet delay"
par Network.Users[75] typename "\"pecsn_project.User\""
par Network.Users[75] CQIdistribution "\"binomial\""
statistic Network.Users[75] throughputStat:stats
field count 700
field mean 0
field stddev 0
field min 0
field max 0
field sum 0
field sqrsum 0
attr "" ""
attr recordingmode stats
attr source throughput
attr title Throughput
statistic Network.Users[75] packetsReceivedStat:stats
field count 700
field mean 0
field stddev 0
field min 0
field max 0
field sum 0
field sqrsum 0
attr "" ""
attr recordingmode stats
attr source packetsReceived
attr title "Packets received per timeslot"
statistic Network.Users[75] packetDelayStat:stats
field count 0
field mean nan
field stddev nan
field min nan
field max nan
field sum 0
field sqrsum 0
attr "" ""
attr recordingmode stats
attr source packetDelay
attr title "Packet delay"
par Network.Users[76] typename "\"pecsn_project.User\""
par Network.Users[76] CQIdistribution "\"binomial\""
statistic Network.Users[76] throughputStat:stats
field count 700
field mean 0
field stddev 0
field min 0
field max 0
field sum 0
field sqrsum 0
attr "" ""
attr recordingmode stats
attr source throughput
attr title Throughput
statistic Network.Users[76] packetsReceivedStat:stats
field count 700
field mean 0
field stddev 0
field min 0
field max 0
field sum 0
field sqrsum 0
attr "" ""
attr recordingmode stats
attr source packetsReceived
attr title "Packets received per timeslot"
statistic Network.Users[76] packetDelayStat:stats
field count 0
field mean nan
field stddev nan
field min nan
field max nan
field sum 0
field sqrsum 0
attr "" ""
attr recordingmode stats
attr source packetDelay
attr title "Packet delay"
par Network.Users[77] typename "\"pecsn_project.User\""
par Network.Users[77] CQIdistribution "\"binomial\""
statistic Network.Users[77] throughputStat:stats
field count 700
field mean 0
field stddev 0
field min 0
field max 0
field sum 0
field sqrsum 0
attr "" ""
attr recordingmode stats
attr source throughput
attr title Throughput
statistic Network.Users[77] packetsReceivedStat:stats
field count 700
field mean 0
field stddev 0
field min 0
field max 0
field sum 0
field sqrsum 0
attr "" ""
attr recordingmode stats
attr source packetsReceived
attr title "Packets received per timeslot"
statistic Network.Users[77] packetDelayStat:stats
field count 0
field mean nan
field stddev nan
field min nan
field max nan
field sum 0
field sqrsum 0
attr "" ""
attr recordingmode stats
attr source packetDelay
attr title "Packet delay"
par Network.Users[78] typename "\"pecsn_project.User\""
par Network.Users[78] CQIdistribution "\"binomial\""
statistic Network.Users[78] throughputStat:stats
field count 700
field mean 0
field stddev 0
field min 0
field max 0
field sum 0
field sqrsum 0
attr "" ""
attr recordingmode stats
attr source throughput
attr title Throughput
statistic Network.Users[78] packetsReceivedStat:stats
field count 700
field mean 0
field stddev 0
field min 0
field max 0
field sum 0
field sqrsum 0
attr "" ""
attr recordingmode stats
attr source packetsReceived
attr title "Packets received per timeslot"
statistic Network.Users[78] packetDelayStat:stats
field count 0
field mean nan
field stddev nan
field min nan
field max nan
field sum 0
field sqrsum 0
attr "" ""
attr recordingmode stats
attr source packetDelay
attr title "Packet delay"
par Network.Users[79] typename "\"pecsn_project.User\""
par Network.Users[79] CQIdistribution "\"binomial\""
statistic Network.Users[79] throughputStat:stats
field count 700
field mean 0
field stddev 0
field min 0
field max 0
field sum 0
field sqrsum 0
attr "" ""
attr recordingmode stats
attr source throughput
attr title Throughput
statistic Network.Users[79] packetsReceivedStat:stats
field count 700
field mean 0
field stddev 0
field min 0
field max 0
field sum 0
field sqrsum 0
attr "" ""
attr recordingmode stats
attr source packetsReceived
attr title "Packets received per timeslot"
statistic Network.Users[79] packetDelayStat:stats
field count 0
field mean nan
field stddev nan
field min nan
field max nan
field sum 0
field sqrsum 0
attr "" ""
attr recordingmode stats
attr source packetDelay
attr title "Packet delay"
par Network.Users[80] typename "\"pecsn_project.User\""
par Network.Users[80] CQIdistribution "\"binomial\""
statistic Network.Users[80] throughputStat:stats
field count 700
field mean 0
field stddev 0
field min 0
field max 0
field sum 0
field sqrsum 0
attr "" ""
attr recordingmode stats
attr source throughput
attr title Throughput
statistic Network.Users[80] packetsReceivedStat:stats
field count 700
field mean 0
field stddev 0
field min 0
field max 0
field sum 0
field sqrsum 0
attr "" ""
attr recordingmode stats
attr source packetsReceived
attr title "Packets received per timeslot"
statistic Network.Users[80] packetDelayStat:stats
field count 0
field mean nan
field stddev nan
field min nan
field max nan
field sum 0
field sqrsum 0
attr "" ""
attr recordingmode stats
attr source packetDelay
attr title "Packet delay"
par Network.Users[81] typename "\"pecsn_project.User\""
par Network.Users[81] CQIdistribution "\"binomial\""
statistic Network.Users[81] throughputStat:stats
field count 700
field mean 0
field stddev 0
field min 0
field max 0
field sum 0
field sqrsum 0
attr "" ""
attr recordingmode stats
attr source throughput
attr title Throughput
statistic Network.Users[81] packetsReceivedStat:stats
field count 700
field mean 0
field stddev 0
field min 0
field max 0
field sum 0
field sqrsum 0
attr "" ""
attr recordingmode stats
attr source packetsReceived
attr title "Packets received per timeslot"
statistic Network.Users[81] packetDelayStat:stats
field count 0
field mean nan
field stddev nan
field min nan
field max nan
field sum 0
field sqrsum 0
attr "" ""
attr recordingmode stats
attr source packetDelay
attr title "Packet delay"
par Network.Users[82] typename "\"pecsn_project.User\""
par Network.Users[82] CQIdistribution "\"binomial\""
statistic Network.Users[82] throughputStat:stats
field count 700
field mean 0
field stddev 0
field min 0
field max 0
field sum 0
field sqrsum 0
attr "" ""
attr recordingmode stats
attr source throughput
attr title Throughput
statistic Network.Users[82] packetsReceivedStat:stats
field count 700
field mean 0
field stddev 0
field min 0
field max 0
field sum 0
field sqrsum 0
attr "" ""
attr recordingmode stats
attr source packetsReceived
attr title "Packets received per timeslot"
statistic Network.Users[82] packetDelayStat:stats
field count 0
field mean nan
field stddev nan
field min nan
field max nan
field sum 0
field sqrsum 0
attr "" ""
attr recordingmode stats
attr source packetDelay
attr title "Packet delay"
par Network.Users[83] typename "\"pecsn_project.User\""
par Network.Users[83] CQIdistribution "\"binomial\""
statistic Network.Users[83] throughputStat:stats
field count 700
field mean 0
field stddev 0
field min 0
field max 0
field sum 0
field sqrsum 0
attr "" ""
attr recordingmode stats
attr source throughput
attr title Throughput
statistic Network.Users[83] packetsReceivedStat:stats
field count 700
field mean 0
field stddev 0
field min 0
field max 0
field sum 0
field sqrsum 0
attr "" ""
attr recordingmode stats
attr source packetsReceived
attr title "Packets received per timeslot"
statistic Network.Users[83] packetDelayStat:stats
field count 0
field mean nan
field stddev nan
field min nan
field max nan
field sum 0
field sqrsum 0
attr "" ""
attr recordingmode stats
attr source packetDelay
attr title "Packet delay"
par Network.Users[84] typename "\"pecsn_project.User\""
par Network.Users[84] CQIdistribution "\"binomial\""
statistic Network.Users[84] throughputStat:stats
field count 700
field mean 0
field stddev 0
field min 0
field max 0
field sum 0
field sqrsum 0
attr "" ""
attr recordingmode stats
attr source throughput
attr title Throughput
statistic Network.Users[84] packetsReceivedStat:stats
field count 700
field mean 0
field stddev 0
field min 0
field max 0
field sum 0
field sqrsum 0
attr "" ""
attr recordingmode stats
attr source packetsReceived
attr title "Packets received per timeslot"
statistic Network.Users[84] packetDelayStat:stats
field count 0
field mean nan
field stddev nan
field min nan
field max nan
field sum 0
field sqrsum 0
attr "" ""
attr recordingmode stats
attr source packetDelay
attr title "Packet delay"
par Network.Users[85] typename "\"pecsn_project.User\""
par Network.Users[85] CQIdistribution "\"binomial\""
statistic Network.Users[85] throughputStat:stats
field count 700
field mean 0
field stddev 0
field min 0
field max 0
field sum 0
field sqrsum 0
attr "" ""
attr recordingmode stats
attr source throughput
attr title Throughput
statistic Network.Users[85] packetsReceivedStat:stats
field count 700
field mean 0
field stddev 0
field min 0
field max 0
field sum 0
field sqrsum 0
attr "" ""
attr recordingmode stats
attr source packetsReceived
attr title "Packets received per timeslot"
statistic Network.Users[85] packetDelayStat:stats
field count 0
field mean nan
field stddev nan
field min nan
field max nan
field sum 0
field sqrsum 0
attr "" ""
attr recordingmode stats
attr source packetDelay
attr title "Packet delay"
par Network.Users[86] typename "\"pecsn_project.User\""
par Network.Users[86] CQIdistribution "\"binomial\""
statistic Network.Users[86] throughputStat:stats
field count 700
field mean 0
field stddev 0
field min 0
field max 0
field sum 0
field sqrsum 0
attr "" ""
attr recordingmode stats
attr source throughput
attr title Throughput
statistic Network.Users[86] packetsReceivedStat:stats
field count 700
field mean 0
field stddev 0
field min 0
field max 0
field sum 0
field sqrsum 0
attr "" ""
attr recordingmode stats
attr source packetsReceived
attr title "Packets received per timeslot"
statistic Network.Users[86] packetDelayStat:stats
field count 0
field mean nan
field stddev nan
field min nan
field max nan
field sum 0
field sqrsum 0
attr "" ""
attr recordingmode stats
attr source packetDelay
attr title "Packet delay"
par Network.Users[87] typename "\"pecsn_project.User\""
par Network.Users[87] CQIdistribution "\"binomial\""
statistic Network.Users[87] throughputStat:stats
field count 700
field mean 0
field stddev 0
field min 0
field max 0
field sum 0
field sqrsum 0
attr "" ""
attr recordingmode stats
attr source throughput
attr title Throughput
statistic Network.Users[87] packetsReceivedStat:stats
field count 700
field mean 0
field stddev 0
field min 0
field max 0
field sum 0
field sqrsum 0
attr "" ""
attr recordingmode stats
attr source packetsReceived
attr title "Packets received per timeslot"
statistic Network.Users[87] packetDelayStat:stats
field count 0
field mean nan
field stddev nan
field min nan
field max nan
field sum 0
field sqrsum 0
attr "" ""
attr recordingmode stats
attr source packetDelay
attr title "Packet delay"
par Network.Users[88] typename "\"pecsn_project.User\""
par Network.Users[88] CQIdistribution "\"binomial\""
statistic Network.Users[88] throughputStat:stats
field count 700
field mean 0
field stddev 0
field min 0
field max 0
field sum 0
field sqrsum 0
attr "" ""
attr recordingmode stats
attr source throughput
attr title Throughput
statistic Network.Users[88] packetsReceivedStat:stats
field count 700
field mean 0
field stddev 0
field min 0
field max 0
field sum 0
field sqrsum 0
attr "" ""
attr recordingmode stats
attr source packetsReceived
attr title "Packets received per timeslot"
statistic Network.Users[88] packetDelayStat:stats
field count 0
field mean nan
field stddev nan
field min nan
field max nan
field sum 0
field sqrsum 0
attr "" ""
attr recordingmode stats
attr source packetDelay
attr title "Packet delay"
par Network.Users[89] typename "\"pecsn_project.User\""
par Network.Users[89] CQIdistribution "\"binomial\""
statistic Network.Users[89] throughputStat:stats
field count 700
field mean 0
field stddev 0
field min 0
field max 0
field sum 0
field sqrsum 0
attr "" ""
attr recordingmode stats
attr source throughput
attr title Throughput
statistic Network.Users[89] packetsReceivedStat:stats
field count 700
field mean 0
field stddev 0
field min 0
field max 0
field sum 0
field sqrsum 0
attr "" ""
attr recordingmode stats
attr source packetsReceived
attr title "Packets received per timeslot"
statistic Network.Users[89] packetDelayStat:stats
field count 0
field mean nan
field stddev nan
field min nan
field max nan
field sum 0
field sqrsum 0
attr "" ""
attr recordingmode stats
attr source packetDelay
attr title "Packet delay"
par Network.Users[90] typename "\"pecsn_project.User\""
par Network.Users[90] CQIdistribution "\"binomial\""
statistic Network.Users[90] throughputStat:stats
field count 700
field mean 0
field stddev 0
field min 0
field max 0
field sum 0
field sqrsum 0
attr "" ""
attr recordingmode stats
attr source throughput
attr title Throughput
statistic Network.Users[90] packetsReceivedStat:stats
field count 700
field mean 0
field stddev 0
field min 0
field max 0
field sum 0
field sqrsum 0
attr "" ""
attr recordingmode stats
attr source packetsReceived
attr title "Packets received per timeslot"
statistic Network.Users[90] packetDelayStat:stats
field count 0
[...]
par Network.PG[49] NUM_USER 200
par Network.PG[49] LAMBDA 200
par Network.PG[50] typename "\"pecsn_project.PacketGenerator\""
par Network.PG[50] NUM_USER 200
par Network.PG[50] LAMBDA 200
par Network.PG[51] typename "\"pecsn_project.PacketGenerator\""
par Network.PG[51] NUM_USER 200
par Network.PG[51] LAMBDA 200
par Network.PG[52] typename "\"pecsn_project.PacketGenerator\""
par Network.PG[52] NUM_USER 200
par Network.PG[52] LAMBDA 200
par Network.PG[53] typename "\"pecsn_project.PacketGenerator\""
par Network.PG[53] NUM_USER 200
par Network.PG[53] LAMBDA 200
par Network.PG[54] typename "\"pecsn_project.PacketGenerator\""
par Network.PG[54] NUM_USER 200
par Network.PG[54] LAMBDA 200
par Network.PG[55] typename "\"pecsn_project.PacketGenerator\""
par Network.PG[55] NUM_USER 200
par Network.PG[55] LAMBDA 200
par Network.PG[56] typename "\"pecsn_project.PacketGenerator\""
par Network.PG[56] NUM_USER 200
par Network.PG[56] LAMBDA 200
par Network.PG[57] typename "\"pecsn_project.PacketGenerator\""
par Network.PG[57] NUM_USER 200
par Network.PG[57] LAMBDA 200
par Network.PG[58] typename "\"pecsn_project.PacketGenerator\""
par Network.PG[58] NUM_USER 200
par Network.PG[58] LAMBDA 200
par Network.PG[59] typename "\"pecsn_project.PacketGenerator\""
par Network.PG[59] NUM_USER 200
par Network.PG[59] LAMBDA 200
par Network.PG[60] typename "\"pecsn_project.PacketGenerator\""
par Network.PG[60] NUM_USER 200
par Network.PG[60] LAMBDA 200
par Network.PG[61] typename "\"pecsn_project.PacketGenerator\""
par Network.PG[61] NUM_USER 200
par Network.PG[61] LAMBDA 200
par Network.PG[62] typename "\"pecsn_project.PacketGenerator\""
par Network.PG[62] NUM_USER 200
par Network.PG[62] LAMBDA 200
par Network.PG[63] typename "\"pecsn_project.PacketGenerator\""
par Network.PG[63] NUM_USER 200
par Network.PG[63] LAMBDA 200
par Network.PG[64] typename "\"pecsn_project.PacketGenerator\""
par Network.PG[64] NUM_USER 200
par Network.PG[64] LAMBDA 200
par Network.PG[65] typename "\"pecsn_project.PacketGenerator\""
par Network.PG[65] NUM_USER 200
par Network.PG[65] LAMBDA 200
par Network.PG[66] typename "\"pecsn_project.PacketGenerator\""
par Network.PG[66] NUM_USER 200
par Network.PG[66] LAMBDA 200
par Network.PG[67] typename "\"pecsn_project.PacketGenerator\""
par Network.PG[67] NUM_USER 200
par Network.PG[67] LAMBDA 200
par Network.PG[68] typename "\"pecsn_project.PacketGenerator\""
par Network.PG[68] NUM_USER 200
par Network.PG[68] LAMBDA 200
par Network.PG[69] typename "\"pecsn_project.PacketGenerator\""
par Network.PG[69] NUM_USER 200
par Network.PG[69] LAMBDA 200
par Network.PG[70] typename "\"pecsn_project.PacketGenerator\""
par Network.PG[70] NUM_USER 200
par Network.PG[70] LAMBDA 200
par Network.PG[71] typename "\"pecsn_project.PacketGenerator\""
par Network.PG[71] NUM_USER 200
par Network.PG[71] LAMBDA 200
par Network.PG[72] typename "\"pecsn_project.PacketGenerator\""
par Network.PG[72] NUM_USER 200
par Network.PG[72] LAMBDA 200
par Network.PG[73] typename "\"pecsn_project.PacketGenerator\""
par Network.PG[73] NUM_USER 200
par Network.PG[73] LAMBDA 200
par Network.PG[74] typename "\"pecsn_project.PacketGenerator\""
par Network.PG[74] NUM_USER 200
par Network.PG[74] LAMBDA 200
par Network.PG[75] typename "\"pecsn_project.PacketGenerator\""
par Network.PG[75] NUM_USER 200
par Network.PG[75] LAMBDA 200
par Network.PG[76] typename "\"pecsn_project.PacketGenerator\""
par Network.PG[76] NUM_USER 200
par Network.PG[76] LAMBDA 200
par Network.PG[77] typename "\"pecsn_project.PacketGenerator\""
par Network.PG[77] NUM_USER 200
par Network.PG[77] LAMBDA 200
par Network.PG[78] typename "\"pecsn_project.PacketGenerator\""
par Network.PG[78] NUM_USER 200
par Network.PG[78] LAMBDA 200
par Network.PG[79] typename "\"pecsn_project.PacketGenerator\""
par Network.PG[79] NUM_USER 200
par Network.PG[79] LAMBDA 200
par Network.PG[80] typename "\"pecsn_project.PacketGenerator\""
par Network.PG[80] NUM_USER 200
par Network.PG[80] LAMBDA 200
par Network.PG[81] typename "\"pecsn_project.PacketGenerator\""
par Network.PG[81] NUM_USER 200
par Network.PG[81] LAMBDA 200
par Network.PG[82] typename "\"pecsn_project.PacketGenerator\""
par Network.PG[82] NUM_USER 200
par Network.PG[82] LAMBDA 200
par Network.PG[83] typename "\"pecsn_project.PacketGenerator\""
par Network.PG[83] NUM_USER 200
par Network.PG[83] LAMBDA 200
par Network.PG[84] typename "\"pecsn_project.PacketGenerator\""
par Network.PG[84] NUM_USER 200
par Network.PG[84] LAMBDA 200
par Network.PG[85] typename "\"pecsn_project.PacketGenerator\""
par Network.PG[85] NUM_USER 200
par Network.PG[85] LAMBDA 200
par Network.PG[86] typename "\"pecsn_project.PacketGenerator\""
par Network.PG[86] NUM_USER 200
par Network.PG[86] LAMBDA 200
par Network.PG[87] typename "\"pecsn_project.PacketGenerator\""
par Network.PG[87] NUM_USER 200
par Network.PG[87] LAMBDA 200
par Network.PG[88] typename "\"pecsn_project.PacketGenerator\""
par Network.PG[88] NUM_USER 200
par Network.PG[88] LAMBDA 200
par Network.PG[89] typename "\"pecsn_project.PacketGenerator\""
par Network.PG[89] NUM_USER 200
par Network.PG[89] LAMBDA 200
par Network.PG[90] typename "\"pecsn_project.PacketGenerator\""
par Network.PG[90] NUM_USER 200
par Network.PG[90] LAMBDA 200
par Network.PG[91] typename "\"pecsn_project.PacketGenerator\""
par Network.PG[91] NUM_USER 200
par Network.PG[91] LAMBDA 200
par Network.PG[92] typename "\"pecsn_project.PacketGenerator\""
par Network.PG[92] NUM_USER 200
par Network.PG[92] LAMBDA 200
par Network.PG[93] typename "\"pecsn_project.PacketGenerator\""
par Network.PG[93] NUM_USER 200
par Network.PG[93] LAMBDA 200
par Network.PG[94] typename "\"pecsn_project.PacketGenerator\""
par Network.PG[94] NUM_USER 200
par Network.PG[94] LAMBDA 200
par Network.PG[95] typename "\"pecsn_project.PacketGenerator\""
par Network.PG[95] NUM_USER 200
par Network.PG[95] LAMBDA 200
par Network.PG[96] typename "\"pecsn_project.PacketGenerator\""
par Network.PG[96] NUM_USER 200
par Network.PG[96] LAMBDA 200
par Network.PG[97] typename "\"pecsn_project.PacketGenerator\""
par Network.PG[97] NUM_USER 200
par Network.PG[97] LAMBDA 200
par Network.PG[98] typename "\"pecsn_project.PacketGenerator\""
par Network.PG[98] NUM_USER 200
par Network.PG[98] LAMBDA 200
par Network.PG[99] typename "\"pecsn_project.PacketGenerator\""
par Network.PG[99] NUM_USER 200
par Network.PG[99] LAMBDA 200
par Network.PG[100] typename "\"pecsn_project.PacketGenerator\""
par Network.PG[100] NUM_USER 200
par Network.PG[100] LAMBDA 200
par Network.PG[101] typename "\"pecsn_project.PacketGenerator\""
par Network.PG[101] NUM_USER 200
par Network.PG[101] LAMBDA 200
par Network.PG[102] typename "\"pecsn_project.PacketGenerator\""
par Network.PG[102] NUM_USER 200
par Network.PG[102] LAMBDA 200
par Network.PG[103] typename "\"pecsn_project.PacketGenerator\""
par Network.PG[103] NUM_USER 200
par Network.PG[103] LAMBDA 200
par Network.PG[104] typename "\"pecsn_project.PacketGenerator\""
par Network.PG[104] NUM_USER 200
par Network.PG[104] LAMBDA 200
par Network.PG[105] typename "\"pecsn_project.PacketGenerator\""
par Network.PG[105] NUM_USER 200
par Network.PG[105] LAMBDA 200
par Network.PG[106] typename "\"pecsn_project.PacketGenerator\""
par Network.PG[106] NUM_USER 200
par Network.PG[106] LAMBDA 200
par Network.PG[107] typename "\"pecsn_project.PacketGenerator\""
par Network.PG[107] NUM_USER 200
par Network.PG[107] LAMBDA 200
par Network.PG[108] typename "\"pecsn_project.PacketGenerator\""
par Network.PG[108] NUM_USER 200
par Network.PG[108] LAMBDA 200
par Network.PG[109] typename "\"pecsn_project.PacketGenerator\""
par Network.PG[109] NUM_USER 200
par Network.PG[109] LAMBDA 200
par Network.PG[110] typename "\"pecsn_project.PacketGenerator\""
par Network.PG[110] NUM_USER 200
par Network.PG[110] LAMBDA 200
par Network.PG[111] typename "\"pecsn_project.PacketGenerator\""
par Network.PG[111] NUM_USER 200
par Network.PG[111] LAMBDA 200
par Network.PG[112] typename "\"pecsn_project.PacketGenerator\""
par Network.PG[112] NUM_USER 200
par Network.PG[112] LAMBDA 200
par Network.PG[113] typename "\"pecsn_project.PacketGenerator\""
par Network.PG[113] NUM_USER 200
par Network.PG[113] LAMBDA 200
par Network.PG[114] typename "\"pecsn_project.PacketGenerator\""
par Network.PG[114] NUM_USER 200
par Network.PG[114] LAMBDA 200
par Network.PG[115] typename "\"pecsn_project.PacketGenerator\""
par Network.PG[115] NUM_USER 200
par Network.PG[115] LAMBDA 200
par Network.PG[116] typename "\"pecsn_project.PacketGenerator\""
par Network.PG[116] NUM_USER 200
par Network.PG[116] LAMBDA 200
par Network.PG[117] typename "\"pecsn_project.PacketGenerator\""
par Network.PG[117] NUM_USER 200
par Network.PG[117] LAMBDA 200
par Network.PG[118] typename "\"pecsn_project.PacketGenerator\""
par Network.PG[118] NUM_USER 200
par Network.PG[118] LAMBDA 200
par Network.PG[119] typename "\"pecsn_project.PacketGenerator\""
par Network.PG[119] NUM_USER 200
par Network.PG[119] LAMBDA 200
par Network.PG[120] typename "\"pecsn_project.PacketGenerator\""
par Network.PG[120] NUM_USER 200
par Network.PG[120] LAMBDA 200
par Network.PG[121] typename "\"pecsn_project.PacketGenerator\""
par Network.PG[121] NUM_USER 200
par Network.PG[121] LAMBDA 200
par Network.PG[122] typename "\"pecsn_project.PacketGenerator\""
par Network.PG[122] NUM_USER 200
par Network.PG[122] LAMBDA 200
par Network.PG[123] typename "\"pecsn_project.PacketGenerator\""
par Network.PG[123] NUM_USER 200
par Network.PG[123] LAMBDA 200
par Network.PG[124] typename "\"pecsn_project.PacketGenerator\""
par Network.PG[124] NUM_USER 200
par Network.PG[124] LAMBDA 200
par Network.PG[125] typename "\"pecsn_project.PacketGenerator\""
par Network.PG[125] NUM_USER 200
par Network.PG[125] LAMBDA 200
par Network.PG[126] typename "\"pecsn_project.PacketGenerator\""
par Network.PG[126] NUM_USER 200
par Network.PG[126] LAMBDA 200
par Network.PG[127] typename "\"pecsn_project.PacketGenerator\""
par Network.PG[127] NUM_USER 200
par Network.PG[127] LAMBDA 200
par Network.PG[128] typename "\"pecsn_project.PacketGenerator\""
par Network.PG[128] NUM_USER 200
par Network.PG[128] LAMBDA 200
par Network.PG[129] typename "\"pecsn_project.PacketGenerator\""
par Network.PG[129] NUM_USER 200
par Network.PG[129] LAMBDA 200
par Network.PG[130] typename "\"pecsn_project.PacketGenerator\""
par Network.PG[130] NUM_USER 200
par Network.PG[130] LAMBDA 200
par Network.PG[131] typename "\"pecsn_project.PacketGenerator\""
par Network.PG[131] NUM_USER 200
par Network.PG[131] LAMBDA 200
par Network.PG[132] typename "\"pecsn_project.PacketGenerator\""
par Network.PG[132] NUM_USER 200
par Network.PG[132] LAMBDA 200
par Network.PG[133] typename "\"pecsn_project.PacketGenerator\""
par Network.PG[133] NUM_USER 200
par Network.PG[133] LAMBDA 200
par Network.PG[134] typename "\"pecsn_project.PacketGenerator\""
par Network.PG[134] NUM_USER 200
par Network.PG[134] LAMBDA 200
par Network.PG[135] typename "\"pecsn_project.PacketGenerator\""
par Network.PG[135] NUM_USER 200
par Network.PG[135] LAMBDA 200
par Network.PG[136] typename "\"pecsn_project.PacketGenerator\""
par Network.PG[136] NUM_USER 200
par Network.PG[136] LAMBDA 200
par Network.PG[137] typename "\"pecsn_project.PacketGenerator\""
par Network.PG[137] NUM_USER 200
par Network.PG[137] LAMBDA 200
par Network.PG[138] typename "\"pecsn_project.PacketGenerator\""
par Network.PG[138] NUM_USER 200
par Network.PG[138] LAMBDA 200
par Network.PG[139] typename "\"pecsn_project.PacketGenerator\""
par Network.PG[139] NUM_USER 200
par Network.PG[139] LAMBDA 200
par Network.PG[140] typename "\"pecsn_project.PacketGenerator\""
par Network.PG[140] NUM_USER 200
par Network.PG[140] LAMBDA 200
par Network.PG[141] typename "\"pecsn_project.PacketGenerator\""
par Network.PG[141] NUM_USER 200
par Network.PG[141] LAMBDA 200
par Network.PG[142] typename "\"pecsn_project.PacketGenerator\""
par Network.PG[142] NUM_USER 200
par Network.PG[142] LAMBDA 200
par Network.PG[143] typename "\"pecsn_project.PacketGenerator\""
par Network.PG[143] NUM_USER 200
par Network.PG[143] LAMBDA 200
par Network.PG[144] typename "\"pecsn_project.PacketGenerator\""
par Network.PG[144] NUM_USER 200
par Network.PG[144] LAMBDA 200
par Network.PG[145] typename "\"pecsn_project.PacketGenerator\""
par Network.PG[145] NUM_USER 200
par Network.PG[145] LAMBDA 200
par Network.PG[146] typename "\"pecsn_project.PacketGenerator\""
par Network.PG[146] NUM_USER 200
par Network.PG[146] LAMBDA 200
par Network.PG[147] typename "\"pecsn_project.PacketGenerator\""
par Network.PG[147] NUM_USER 200
par Network.PG[147] LAMBDA 200
par Network.PG[148] typename "\"pecsn_project.PacketGenerator\""
par Network.PG[148] NUM_USER 200
par Network.PG[148] LAMBDA 200
par Network.PG[149] typename "\"pecsn_project.PacketGenerator\""
par Network.PG[149] NUM_USER 200
par Network.PG[149] LAMBDA 200
par Network.PG[150] typename "\"pecsn_project.PacketGenerator\""
par Network.PG[150] NUM_USER 200
par Network.PG[150] LAMBDA 200
par Network.PG[151] typename "\"pecsn_project.PacketGenerator\""
par Network.PG[151] NUM_USER 200
par Network.PG[151] LAMBDA 200
par Network.PG[152] typename "\"pecsn_project.PacketGenerator\""
par Network.PG[152] NUM_USER 200
par Network.PG[152] LAMBDA 200
par Network.PG[153] typename "\"pecsn_project.PacketGenerator\""
par Network.PG[153] NUM_USER 200
par Network.PG[153] LAMBDA 200
par Network.PG[154] typename "\"pecsn_project.PacketGenerator\""
par Network.PG[154] NUM_USER 200
par Network.PG[154] LAMBDA 200
par Network.PG[155] typename "\"pecsn_project.PacketGenerator\""
par Network.PG[155] NUM_USER 200
par Network.PG[155] LAMBDA 200
par Network.PG[156] typename "\"pecsn_project.PacketGenerator\""
par Network.PG[156] NUM_USER 200
par Network.PG[156] LAMBDA 200
par Network.PG[157] typename "\"pecsn_project.PacketGenerator\""
par Network.PG[157] NUM_USER 200
par Network.PG[157] LAMBDA 200
par Network.PG[158] typename "\"pecsn_project.PacketGenerator\""
par Network.PG[158] NUM_USER 200
par Network.PG[158] LAMBDA 200
par Network.PG[159] typename "\"pecsn_project.PacketGenerator\""
par Network.PG[159] NUM_USER 200
par Network.PG[159] LAMBDA 200
par Network.PG[160] typename "\"pecsn_project.PacketGenerator\""
par Network.PG[160] NUM_USER 200
par Network.PG[160] LAMBDA 200
par Network.PG[161] typename "\"pecsn_project.PacketGenerator\""
par Network.PG[161] NUM_USER 200
par Network.PG[161] LAMBDA 200
par Network.PG[162] typename "\"pecsn_project.PacketGenerator\""
par Network.PG[162] NUM_USER 200
par Network.PG[162] LAMBDA 200
par Network.PG[163] typename "\"pecsn_project.PacketGenerator\""
par Network.PG[163] NUM_USER 200
par Network.PG[163] LAMBDA 200
par Network.PG[164] typename "\"pecsn_project.PacketGenerator\""
par Network.PG[164] NUM_USER 200
par Network.PG[164] LAMBDA 200
par Network.PG[165] typename "\"pecsn_project.PacketGenerator\""
par Network.PG[165] NUM_USER 200
par Network.PG[165] LAMBDA 200
par Network.PG[166] typename "\"pecsn_project.PacketGenerator\""
par Network.PG[166] NUM_USER 200
par Network.PG[166] LAMBDA 200
par Network.PG[167] typename "\"pecsn_project.PacketGenerator\""
par Network.PG[167] NUM_USER 200
par Network.PG[167] LAMBDA 200
par Network.PG[168] typename "\"pecsn_project.PacketGenerator\""
par Network.PG[168] NUM_USER 200
par Network.PG[168] LAMBDA 200
par Network.PG[169] typename "\"pecsn_project.PacketGenerator\""
par Network.PG[169] NUM_USER 200
par Network.PG[169] LAMBDA 200
par Network.PG[170] typename "\"pecsn_project.PacketGenerator\""
par Network.PG[170] NUM_USER 200
par Network.PG[170] LAMBDA 200
par Network.PG[171] typename "\"pecsn_project.PacketGenerator\""
par Network.PG[171] NUM_USER 200
par Network.PG[171] LAMBDA 200
par Network.PG[172] typename "\"pecsn_project.PacketGenerator\""
par Network.PG[172] NUM_USER 200
par Network.PG[172] LAMBDA 200
par Network.PG[173] typename "\"pecsn_project.PacketGenerator\""
par Network.PG[173] NUM_USER 200
par Network.PG[173] LAMBDA 200
par Network.PG[174] typename "\"pecsn_project.PacketGenerator\""
par Network.PG[174] NUM_USER 200
par Network.PG[174] LAMBDA 200
par Network.PG[175] typename "\"pecsn_project.PacketGenerator\""
par Network.PG[175] NUM_USER 200
par Network.PG[175] LAMBDA 200
par Network.PG[176] typename "\"pecsn_project.PacketGenerator\""
par Network.PG[176] NUM_USER 200
par Network.PG[176] LAMBDA 200
par Network.PG[177] typename "\"pecsn_project.PacketGenerator\""
par Network.PG[177] NUM_USER 200
par Network.PG[177] LAMBDA 200
par Network.PG[178] typename "\"pecsn_project.PacketGenerator\""
par Network.PG[178] NUM_USER 200
par Network.PG[178] LAMBDA 200
par Network.PG[179] typename "\"pecsn_project.PacketGenerator\""
par Network.PG[179] NUM_USER 200
par Network.PG[179] LAMBDA 200
par Network.PG[180] typename "\"pecsn_project.PacketGenerator\""
par Network.PG[180] NUM_USER 200
par Network.PG[180] LAMBDA 200
par Network.PG[181] typename "\"pecsn_project.PacketGenerator\""
par Network.PG[181] NUM_USER 200
par Network.PG[181] LAMBDA 200
par Network.PG[182] typename "\"pecsn_project.PacketGenerator\""
par Network.PG[182] NUM_USER 200
par Network.PG[182] LAMBDA 200
par Network.PG[183] typename "\"pecsn_project.PacketGenerator\""
par Network.PG[183] NUM_USER 200
par Network.PG[183] LAMBDA 200
par Network.PG[184] typename "\"pecsn_project.PacketGenerator\""
par Network.PG[184] NUM_USER 200
par Network.PG[184] LAMBDA 200
par Network.PG[185] typename "\"pecsn_project.PacketGenerator\""
par Network.PG[185] NUM_USER 200
par Network.PG[185] LAMBDA 200
par Network.PG[186] typename "\"pecsn_project.PacketGenerator\""
par Network.PG[186] NUM_USER 200
par Network.PG[186] LAMBDA 200
par Network.PG[187] typename "\"pecsn_project.PacketGenerator\""
par Network.PG[187] NUM_USER 200
par Network.PG[187] LAMBDA 200
par Network.PG[188] typename "\"pecsn_project.PacketGenerator\""
par Network.PG[188] NUM_USER 200
par Network.PG[188] LAMBDA 200
par Network.PG[189] typename "\"pecsn_project.PacketGenerator\""
par Network.PG[189] NUM_USER 200
par Network.PG[189] LAMBDA 200
par Network.PG[190] typename "\"pecsn_project.PacketGenerator\""
par Network.PG[190] NUM_USER 200
par Network.PG[190] LAMBDA 200
par Network.PG[191] typename "\"pecsn_project.PacketGenerator\""
par Network.PG[191] NUM_USER 200
par Network.PG[191] LAMBDA 200
par Network.PG[192] typename "\"pecsn_project.PacketGenerator\""
par Network.PG[192] NUM_USER 200
par Network.PG[192] LAMBDA 200
par Network.PG[193] typename "\"pecsn_project.PacketGenerator\""
par Network.PG[193] NUM_USER 200
par Network.PG[193] LAMBDA 200
par Network.PG[194] typename "\"pecsn_project.PacketGenerator\""
par Network.PG[194] NUM_USER 200
par Network.PG[194] LAMBDA 200
par Network.PG[195] typename "\"pecsn_project.PacketGenerator\""
par Network.PG[195] NUM_USER 200
par Network.PG[195] LAMBDA 200
par Network.PG[196] typename "\"pecsn_project.PacketGenerator\""
par Network.PG[196] NUM_USER 200
par Network.PG[196] LAMBDA 200
par Network.PG[197] typename "\"pecsn_project.PacketGenerator\""
par Network.PG[197] NUM_USER 200
par Network.PG[197] LAMBDA 200
par Network.PG[198] typename "\"pecsn_project.PacketGenerator\""
par Network.PG[198] NUM_USER 200
par Network.PG[198] LAMBDA 200
par Network.PG[199] typename "\"pecsn_project.PacketGenerator\""
par Network.PG[199] NUM_USER 200
par Network.PG[199] LAMBDA 200
par Network typename "\"pecsn_project.simulations.Network\""
par Network NUM_USER 200
par Network lambda 10
par Network CQIRngMultiplier 0
par Network PktSizeRngMultiplier 1
par Network PktGenerationRngMultiplier 2

