version 3
run binomialCQI-242-20231216-18:04:31-19044
attr configname binomialCQI
attr datetime 20231216-18:04:31
attr datetimef 20231216-180431
attr experiment binomialCQI
attr inifile omnetpp.ini
attr iterationvars "$simulationTime=70s, $nUser=200, $lambda=200"
attr iterationvarsd simulationTime=70s/nUser=200/lambda=200
attr iterationvarsf simulationTime=70s,nUser=200,lambda=200-
attr measurement "$simulationTime=70s, $nUser=200, $lambda=200"
attr network Network
attr processid 19044
attr repetition 2
attr replication #2
attr resultdir results
attr runnumber 242
attr seedset 2
itervar lambda 200
itervar nUser 200
itervar simulationTime 70s
config **.Users[*].CQIdistribution "\"binomial\""
config network Network
config cpu-time-limit 60s
config sim-time-limit 70s
config num-rngs 600
config repeat 10
config seed-set 2
config **.NUM_USER 200
config **.LAMBDA 200
config **.CQIArrayLength 15
config **.CQIValues "\" 3 3 6 11 15 20 25 36 39 50 63 72 80 93 93 \""
config **.frameSize 25
config **.timeSlot 0.1

par Network.BS typename "\"pecsn_project.BaseStation\""
par Network.BS CQIValues "\" 3 3 6 11 15 20 25 36 39 50 63 72 80 93 93 \""
par Network.BS CQIArrayLength 15
par Network.BS frameSize 25
par Network.BS timeSlot 0.1
statistic Network.BS simFrameStat:stats
field count 700
field mean 25
field stddev 0
field min 25
field max 25
field sum 17500
field sqrsum 437500
attr "" ""
attr recordingmode stats
attr source simFrame
attr title "Occupied frame slots"
par Network.Users[0] typename "\"pecsn_project.User\""
par Network.Users[0] CQIdistribution "\"binomial\""
statistic Network.Users[0] throughputStat:stats
field count 700
field mean 0.57142857142857
field stddev 6.7522505728754
field min 0
field max 85
field sum 400
field sqrsum 32098
attr "" ""
attr recordingmode stats
attr source throughput
attr title Throughput
statistic Network.Users[0] packetsReceivedStat:stats
field count 700
field mean 0.065714285714286
field stddev 0.77972991807813
field min 0
field max 10
field sum 46
field sqrsum 428
attr "" ""
attr recordingmode stats
attr source packetsReceived
attr title "Packets received per timeslot"
statistic Network.Users[0] packetDelayStat:stats
field count 46
field mean 31.958147544553
field stddev 23.54212464406
field min 0.081947220619
field max 66.631858685336
field sum 1470.0747870494
field sqrsum 71921.290420093
attr "" ""
attr recordingmode stats
attr source packetDelay
attr title "Packet delay"
par Network.Users[1] typename "\"pecsn_project.User\""
par Network.Users[1] CQIdistribution "\"binomial\""
statistic Network.Users[1] throughputStat:stats
field count 700
field mean 0.11
field stddev 2.910326442171
field min 0
field max 77
field sum 77
field sqrsum 5929
attr "" ""
attr recordingmode stats
attr source throughput
attr title Throughput
statistic Network.Users[1] packetsReceivedStat:stats
field count 700
field mean 0.012857142857143
field stddev 0.3401680257083
field min 0
field max 9
field sum 9
field sqrsum 81
attr "" ""
attr recordingmode stats
attr source packetsReceived
attr title "Packets received per timeslot"
statistic Network.Users[1] packetDelayStat:stats
field count 9
field mean 17.571644078291
field stddev 0.013171919005369
field min 17.544270397316
field max 17.588797500657
field sum 158.14479670462
field sqrsum 2778.8654685228
attr "" ""
attr recordingmode stats
attr source packetDelay
attr title "Packet delay"
par Network.Users[2] typename "\"pecsn_project.User\""
par Network.Users[2] CQIdistribution "\"binomial\""
statistic Network.Users[2] throughputStat:stats
field count 700
field mean 0.0057142857142857
field stddev 0.11947155255549
field min 0
field max 3
field sum 4
field sqrsum 10
attr "" ""
attr recordingmode stats
attr source throughput
attr title Throughput
statistic Network.Users[2] packetsReceivedStat:stats
field count 700
field mean 0.0028571428571429
field stddev 0.053413999899317
field min 0
field max 1
field sum 2
field sqrsum 2
attr "" ""
attr recordingmode stats
attr source packetsReceived
attr title "Packets received per timeslot"
statistic Network.Users[2] packetDelayStat:stats
field count 2
field mean 8.8467424748935
field stddev 12.373331304618
field min 0.09747600353
field max 17.596008946257
field sum 17.693484949787
field sqrsum 309.62903240802
attr "" ""
attr recordingmode stats
attr source packetDelay
attr title "Packet delay"
par Network.Users[3] typename "\"pecsn_project.User\""
par Network.Users[3] CQIdistribution "\"binomial\""
statistic Network.Users[3] throughputStat:stats
field count 700
field mean 0.12
field stddev 2.9190117284232
field min 0
field max 77
field sum 84
field sqrsum 5966
attr "" ""
attr recordingmode stats
attr source throughput
attr title Throughput
statistic Network.Users[3] packetsReceivedStat:stats
field count 700
field mean 0.02
field stddev 0.42409543558443
field min 0
field max 11
field sum 14
field sqrsum 126
attr "" ""
attr recordingmode stats
attr source packetsReceived
attr title "Packets received per timeslot"
statistic Network.Users[3] packetDelayStat:stats
field count 14
field mean 11.960416060686
field stddev 23.780858962715
field min 0.123805577661
field max 66.709304327606
field sum 167.4458248496
field sqrsum 9354.6020218849
attr "" ""
attr recordingmode stats
attr source packetDelay
attr title "Packet delay"
par Network.Users[4] typename "\"pecsn_project.User\""
par Network.Users[4] CQIdistribution "\"binomial\""
statistic Network.Users[4] throughputStat:stats
field count 700
field mean 0.21142857142857
field stddev 3.9584227887963
field min 0
field max 78
field sum 148
field sqrsum 10984
attr "" ""
attr recordingmode stats
attr source throughput
attr title Throughput
statistic Network.Users[4] packetsReceivedStat:stats
field count 700
field mean 0.027142857142857
field stddev 0.51373730325784
field min 0
field max 11
field sum 19
field sqrsum 185
attr "" ""
attr recordingmode stats
attr source packetsReceived
attr title "Packets received per timeslot"
statistic Network.Users[4] packetDelayStat:stats
field count 19
field mean 21.06372684871
field stddev 25.040058022975
field min 0.259852302195
field max 49.65864005092
field sum 400.21081012548
field sqrsum 19716.012290675
attr "" ""
attr recordingmode stats
attr source packetDelay
attr title "Packet delay"
par Network.Users[5] typename "\"pecsn_project.User\""
par Network.Users[5] CQIdistribution "\"binomial\""
statistic Network.Users[5] throughputStat:stats
field count 700
field mean 0
field stddev 0
field min 0
field max 0
field sum 0
field sqrsum 0
attr "" ""
attr recordingmode stats
attr source throughput
attr title Throughput
statistic Network.Users[5] packetsReceivedStat:stats
field count 700
field mean 0
field stddev 0
field min 0
field max 0
field sum 0
field sqrsum 0
attr "" ""
attr recordingmode stats
attr source packetsReceived
attr title "Packets received per timeslot"
statistic Network.Users[5] packetDelayStat:stats
field count 0
field mean nan
field stddev nan
field min nan
field max nan
field sum 0
field sqrsum 0
attr "" ""
attr recordingmode stats
attr source packetDelay
attr title "Packet delay"
par Network.Users[6] typename "\"pecsn_project.User\""
par Network.Users[6] CQIdistribution "\"binomial\""
statistic Network.Users[6] throughputStat:stats
field count 700
field mean 0
field stddev 0
field min 0
field max 0
field sum 0
field sqrsum 0
attr "" ""
attr recordingmode stats
attr source throughput
attr title Throughput
statistic Network.Users[6] packetsReceivedStat:stats
field count 700
field mean 0
field stddev 0
field min 0
field max 0
field sum 0
field sqrsum 0
attr "" ""
attr recordingmode stats
attr source packetsReceived
attr title "Packets received per timeslot"
statistic Network.Users[6] packetDelayStat:stats
field count 0
field mean nan
field stddev nan
field min nan
field max nan
field sum 0
field sqrsum 0
attr "" ""
attr recordingmode stats
attr source packetDelay
attr title "Packet delay"
par Network.Users[7] typename "\"pecsn_project.User\""
par Network.Users[7] CQIdistribution "\"binomial\""
statistic Network.Users[7] throughputStat:stats
field count 700
field mean 0.0071428571428571
field stddev 0.18898223650461
field min 0
field max 5
field sum 5
field sqrsum 25
attr "" ""
attr recordingmode stats
attr source throughput
attr title Throughput
statistic Network.Users[7] packetsReceivedStat:stats
field count 700
field mean 0.0014285714285714
field stddev 0.037796447300923
field min 0
field max 1
field sum 1
field sqrsum 1
attr "" ""
attr recordingmode stats
attr source packetsReceived
attr title "Packets received per timeslot"
statistic Network.Users[7] packetDelayStat:stats
field count 1
field mean 0.296437548342
field stddev nan
field min 0.296437548342
field max 0.296437548342
field sum 0.296437548342
field sqrsum 0.087875220067016
attr "" ""
attr recordingmode stats
attr source packetDelay
attr title "Packet delay"
par Network.Users[8] typename "\"pecsn_project.User\""
par Network.Users[8] CQIdistribution "\"binomial\""
statistic Network.Users[8] throughputStat:stats
field count 700
field mean 0.014285714285714
field stddev 0.37796447300923
field min 0
field max 10
field sum 10
field sqrsum 100
attr "" ""
attr recordingmode stats
attr source throughput
attr title Throughput
statistic Network.Users[8] packetsReceivedStat:stats
field count 700
field mean 0.0028571428571429
field stddev 0.075592894601845
field min 0
field max 2
field sum 2
field sqrsum 4
attr "" ""
attr recordingmode stats
attr source packetsReceived
attr title "Packets received per timeslot"
statistic Network.Users[8] packetDelayStat:stats
field count 2
field mean 49.694261769259
field stddev 0.0063020910211528
field min 49.689805517924
field max 49.698718020593
field sum 99.388523538517
field sqrsum 4939.0393452995
attr "" ""
attr recordingmode stats
attr source packetDelay
attr title "Packet delay"
par Network.Users[9] typename "\"pecsn_project.User\""
par Network.Users[9] CQIdistribution "\"binomial\""
statistic Network.Users[9] throughputStat:stats
field count 700
field mean 0.11142857142857
field stddev 2.948122889472
field min 0
field max 78
field sum 78
field sqrsum 6084
attr "" ""
attr recordingmode stats
attr source throughput
attr title Throughput
statistic Network.Users[9] packetsReceivedStat:stats
field count 700
field mean 0.012857142857143
field stddev 0.3401680257083
field min 0
field max 9
field sum 9
field sqrsum 81
attr "" ""
attr recordingmode stats
attr source packetsReceived
attr title "Packets received per timeslot"
statistic Network.Users[9] packetDelayStat:stats
field count 9
field mean 49.779269568095
field stddev 0.015480266789611
field min 49.754507397187
field max 49.799688184889
field sum 448.01342611285
field sqrsum 22301.783025707
attr "" ""
attr recordingmode stats
attr source packetDelay
attr title "Packet delay"
par Network.Users[10] typename "\"pecsn_project.User\""
par Network.Users[10] CQIdistribution "\"binomial\""
statistic Network.Users[10] throughputStat:stats
field count 700
field mean 0.22142857142857
field stddev 5.858449331643
field min 0
field max 155
field sum 155
field sqrsum 24025
attr "" ""
attr recordingmode stats
attr source throughput
attr title Throughput
statistic Network.Users[10] packetsReceivedStat:stats
field count 700
field mean 0.027142857142857
field stddev 0.71813249871753
field min 0
field max 19
field sum 19
field sqrsum 361
attr "" ""
attr recordingmode stats
attr source packetsReceived
attr title "Packets received per timeslot"
statistic Network.Users[10] packetDelayStat:stats
field count 19
field mean 49.853060336917
field stddev 0.031475842651694
field min 49.794328368924
field max 49.893911443536
field sum 947.20814640142
field sqrsum 47221.242707285
attr "" ""
attr recordingmode stats
attr source packetDelay
attr title "Packet delay"
par Network.Users[11] typename "\"pecsn_project.User\""
par Network.Users[11] CQIdistribution "\"binomial\""
statistic Network.Users[11] throughputStat:stats
field count 700
field mean 0
field stddev 0
field min 0
field max 0
field sum 0
field sqrsum 0
attr "" ""
attr recordingmode stats
attr source throughput
attr title Throughput
statistic Network.Users[11] packetsReceivedStat:stats
field count 700
field mean 0
field stddev 0
field min 0
field max 0
field sum 0
field sqrsum 0
attr "" ""
attr recordingmode stats
attr source packetsReceived
attr title "Packets received per timeslot"
statistic Network.Users[11] packetDelayStat:stats
field count 0
field mean nan
field stddev nan
field min nan
field max nan
field sum 0
field sqrsum 0
attr "" ""
attr recordingmode stats
attr source packetDelay
attr title "Packet delay"
par Network.Users[12] typename "\"pecsn_project.User\""
par Network.Users[12] CQIdistribution "\"binomial\""
statistic Network.Users[12] throughputStat:stats
field count 700
field mean 0.0071428571428571
field stddev 0.18898223650461
field min 0
field max 5
field sum 5
field sqrsum 25
attr "" ""
attr recordingmode stats
attr source throughput
attr title Throughput
statistic Network.Users[12] packetsReceivedStat:stats
field count 700
field mean 0.0014285714285714
field stddev 0.037796447300923
field min 0
field max 1
field sum 1
field sqrsum 1
attr "" ""
attr recordingmode stats
attr source packetsReceived
attr title "Packets received per timeslot"
statistic Network.Users[12] packetDelayStat:stats
field count 1
field mean 0.289409367584
field stddev nan
field min 0.289409367584
field max 0.289409367584
field sum 0.289409367584
field sqrsum 0.083757782045371
attr "" ""
attr recordingmode stats
attr source packetDelay
attr title "Packet delay"
par Network.Users[13] typename "\"pecsn_project.User\""
par Network.Users[13] CQIdistribution "\"binomial\""
statistic Network.Users[13] throughputStat:stats
field count 700
field mean 0.23571428571429
field stddev 5.6510481313318
field min 0
field max 149
field sum 165
field sqrsum 22361
attr "" ""
attr recordingmode stats
attr source throughput
attr title Throughput
statistic Network.Users[13] packetsReceivedStat:stats
field count 700
field mean 0.028571428571429
field stddev 0.61389323913344
field min 0
field max 16
field sum 20
field sqrsum 264
attr "" ""
attr recordingmode stats
attr source packetsReceived
attr title "Packets received per timeslot"
statistic Network.Users[13] packetDelayStat:stats
field count 20
field mean 8.7191370345353
field stddev 20.518320100583
field min 0.335771080737
field max 66.722896686988
field sum 174.38274069071
field sqrsum 9519.4947477898
attr "" ""
attr recordingmode stats
attr source packetDelay
attr title "Packet delay"
par Network.Users[14] typename "\"pecsn_project.User\""
par Network.Users[14] CQIdistribution "\"binomial\""
statistic Network.Users[14] throughputStat:stats
field count 700
field mean 0.43285714285714
field stddev 6.9108200588021
field min 0
field max 145
field sum 303
field sqrsum 33515
attr "" ""
attr recordingmode stats
attr source throughput
attr title Throughput
statistic Network.Users[14] packetsReceivedStat:stats
field count 700
field mean 0.051428571428571
field stddev 0.84926002582082
field min 0
field max 19
field sum 36
field sqrsum 506
attr "" ""
attr recordingmode stats
attr source packetsReceived
attr title "Packets received per timeslot"
statistic Network.Users[14] packetDelayStat:stats
field count 36
field mean 39.76052854544
field stddev 29.567093473533
field min 0.473980781411
field max 66.821936766616
field sum 1431.3790276359
field sqrsum 87509.842264202
attr "" ""
attr recordingmode stats
attr source packetDelay
attr title "Packet delay"
par Network.Users[15] typename "\"pecsn_project.User\""
par Network.Users[15] CQIdistribution "\"binomial\""
statistic Network.Users[15] throughputStat:stats
field count 700
field mean 0.30428571428571
field stddev 6.1260235655046
field min 0
field max 149
field sum 213
field sqrsum 26297
attr "" ""
attr recordingmode stats
attr source throughput
attr title Throughput
statistic Network.Users[15] packetsReceivedStat:stats
field count 700
field mean 0.038571428571429
field stddev 0.80053502444475
field min 0
field max 20
field sum 27
field sqrsum 449
attr "" ""
attr recordingmode stats
attr source packetsReceived
attr title "Packets received per timeslot"
statistic Network.Users[15] packetDelayStat:stats
field count 27
field mean 49.731799242025
field stddev 29.630692184193
field min 0.570582285251
field max 66.968204685068
field sum 1342.7585795347
field sqrsum 89605.226010098
attr "" ""
attr recordingmode stats
attr source packetDelay
attr title "Packet delay"
par Network.Users[16] typename "\"pecsn_project.User\""
par Network.Users[16] CQIdistribution "\"binomial\""
statistic Network.Users[16] throughputStat:stats
field count 700
field mean 0.10428571428571
field stddev 2.721552600845
field min 0
field max 72
field sum 73
field sqrsum 5185
attr "" ""
attr recordingmode stats
attr source throughput
attr title Throughput
statistic Network.Users[16] packetsReceivedStat:stats
field count 700
field mean 0.011428571428571
field stddev 0.26720770783284
field min 0
field max 7
field sum 8
field sqrsum 50
attr "" ""
attr recordingmode stats
attr source packetsReceived
attr title "Packets received per timeslot"
statistic Network.Users[16] packetDelayStat:stats
field count 8
field mean 58.768653957819
field stddev 23.503847383307
field min 0.599604075521
field max 67.095112646721
field sum 470.14923166256
field sqrsum 31497.053396836
attr "" ""
attr recordingmode stats
attr source packetDelay
attr title "Packet delay"
par Network.Users[17] typename "\"pecsn_project.User\""
par Network.Users[17] CQIdistribution "\"binomial\""
statistic Network.Users[17] throughputStat:stats
field count 700
field mean 0.045714285714286
field stddev 0.8562963324408
field min 0
field max 17
field sum 32
field sqrsum 514
attr "" ""
attr recordingmode stats
attr source throughput
attr title Throughput
statistic Network.Users[17] packetsReceivedStat:stats
field count 700
field mean 0.0071428571428571
field stddev 0.13618701751649
field min 0
field max 3
field sum 5
field sqrsum 13
attr "" ""
attr recordingmode stats
attr source packetsReceived
attr title "Packets received per timeslot"
statistic Network.Users[17] packetDelayStat:stats
field count 5
field mean 27.175523796693
field stddev 36.418777349131
field min 0.575737338476
field max 67.070808735729
field sum 135.87761898346
field sqrsum 8997.8548425456
attr "" ""
attr recordingmode stats
attr source packetDelay
attr title "Packet delay"
par Network.Users[18] typename "\"pecsn_project.User\""
par Network.Users[18] CQIdistribution "\"binomial\""
statistic Network.Users[18] throughputStat:stats
field count 700
field mean 0.63428571428571
field stddev 12.222565094374
field min 0
field max 284
field sum 444
field sqrsum 104706
attr "" ""
attr recordingmode stats
attr source throughput
attr title Throughput
statistic Network.Users[18] packetsReceivedStat:stats
field count 700
field mean 0.085714285714286
field stddev 1.6731734827483
field min 0
field max 40
field sum 60
field sqrsum 1962
attr "" ""
attr recordingmode stats
attr source packetsReceived
attr title "Packets received per timeslot"
statistic Network.Users[18] packetDelayStat:stats
field count 60
field mean 45.68624341219
field stddev 30.996332749205
field min 0.602909453075
field max 67.087269403113
field sum 2741.1746047314
field sqrsum 181919.55621714
attr "" ""
attr recordingmode stats
attr source packetDelay
attr title "Packet delay"
par Network.Users[19] typename "\"pecsn_project.User\""
par Network.Users[19] CQIdistribution "\"binomial\""
statistic Network.Users[19] throughputStat:stats
field count 700
field mean 0.55571428571429
field stddev 8.7594483745662
field min 0
field max 154
field sum 389
field sqrsum 53849
attr "" ""
attr recordingmode stats
attr source throughput
attr title Throughput
statistic Network.Users[19] packetsReceivedStat:stats
field count 700
field mean 0.062857142857143
field stddev 0.99730271835467
field min 0
field max 19
field sum 44
field sqrsum 698
attr "" ""
attr recordingmode stats
attr source packetsReceived
attr title "Packets received per timeslot"
statistic Network.Users[19] packetDelayStat:stats
field count 44
field mean 32.166479860145
field stddev 28.42144977543
field min 0.692168665007
field max 67.099109154746
field sum 1415.3251138464
field sqrsum 80260.5154856
attr "" ""
attr recordingmode stats
attr source packetDelay
attr title "Packet delay"
par Network.Users[20] typename "\"pecsn_project.User\""
par Network.Users[20] CQIdistribution "\"binomial\""
statistic Network.Users[20] throughputStat:stats
field count 700
field mean 0.13142857142857
field stddev 2.797379872457
field min 0
field max 71
field sum 92
field sqrsum 5482
attr "" ""
attr recordingmode stats
attr source throughput
attr title Throughput
statistic Network.Users[20] packetsReceivedStat:stats
field count 700
field mean 0.012857142857143
field stddev 0.27505828674611
field min 0
field max 7
field sum 9
field sqrsum 53
attr "" ""
attr recordingmode stats
attr source packetsReceived
attr title "Packets received per timeslot"
statistic Network.Users[20] packetDelayStat:stats
field count 9
field mean 4.600089519225
field stddev 7.3929227769874
field min 0.849860623125
field max 17.646257112206
field sum 41.400805673025
field sqrsum 627.68986975595
attr "" ""
attr recordingmode stats
attr source packetDelay
attr title "Packet delay"
par Network.Users[21] typename "\"pecsn_project.User\""
par Network.Users[21] CQIdistribution "\"binomial\""
statistic Network.Users[21] throughputStat:stats
field count 700
field mean 0.16571428571429
field stddev 3.4410583973438
field min 0
field max 86
field sum 116
field sqrsum 8296
attr "" ""
attr recordingmode stats
attr source throughput
attr title Throughput
statistic Network.Users[21] packetsReceivedStat:stats
field count 700
field mean 0.024285714285714
field stddev 0.51388049753516
field min 0
field max 13
field sum 17
field sqrsum 185
attr "" ""
attr recordingmode stats
attr source packetsReceived
attr title "Packets received per timeslot"
statistic Network.Users[21] packetDelayStat:stats
field count 17
field mean 13.792895566118
field stddev 7.3787954148573
field min 0.884554055722
field max 17.783128368296
field sum 234.479224624
field sqrsum 4105.2934060521
attr "" ""
attr recordingmode stats
attr source packetDelay
attr title "Packet delay"
par Network.Users[22] typename "\"pecsn_project.User\""
par Network.Users[22] CQIdistribution "\"binomial\""
statistic Network.Users[22] throughputStat:stats
field count 700
field mean 0.23857142857143
field stddev 6.3120066992541
field min 0
field max 167
field sum 167
field sqrsum 27889
attr "" ""
attr recordingmode stats
attr source throughput
attr title Throughput
statistic Network.Users[22] packetsReceivedStat:stats
field count 700
field mean 0.027142857142857
field stddev 0.71813249871753
field min 0
field max 19
field sum 19
field sqrsum 361
attr "" ""
attr recordingmode stats
attr source packetsReceived
attr title "Packets received per timeslot"
statistic Network.Users[22] packetDelayStat:stats
field count 19
field mean 0.95562924001732
field stddev 0.023376209048616
field min 0.913120220433
field max 0.99598440994
field sum 18.156955560329
field sqrsum 17.361153691836
attr "" ""
attr recordingmode stats
attr source packetDelay
attr title "Packet delay"
par Network.Users[23] typename "\"pecsn_project.User\""
par Network.Users[23] CQIdistribution "\"binomial\""
statistic Network.Users[23] throughputStat:stats
field count 700
field mean 0.10285714285714
field stddev 2.7213442056664
field min 0
field max 72
field sum 72
field sqrsum 5184
attr "" ""
attr recordingmode stats
attr source throughput
attr title Throughput
statistic Network.Users[23] packetsReceivedStat:stats
field count 700
field mean 0.014285714285714
field stddev 0.37796447300923
field min 0
field max 10
field sum 10
field sqrsum 100
attr "" ""
attr recordingmode stats
attr source packetsReceived
attr title "Packets received per timeslot"
statistic Network.Users[23] packetDelayStat:stats
field count 10
field mean 1.0805888371438
field stddev 0.015253898242738
field min 1.054635620806
field max 1.099253712518
field sum 10.805888371438
field sqrsum 11.678816482302
attr "" ""
attr recordingmode stats
attr source packetDelay
attr title "Packet delay"
par Network.Users[24] typename "\"pecsn_project.User\""
par Network.Users[24] CQIdistribution "\"binomial\""
statistic Network.Users[24] throughputStat:stats
field count 700
field mean 0.04
field stddev 0.81375865424176
field min 0
field max 20
field sum 28
field sqrsum 464
attr "" ""
attr recordingmode stats
attr source throughput
attr title Throughput
statistic Network.Users[24] packetsReceivedStat:stats
field count 700
field mean 0.0042857142857143
field stddev 0.084467048007255
field min 0
field max 2
field sum 3
field sqrsum 5
attr "" ""
attr recordingmode stats
attr source packetsReceived
attr title "Packets received per timeslot"
statistic Network.Users[24] packetDelayStat:stats
field count 3
field mean 33.693644149526
field stddev 28.232293391155
field min 1.093799771106
field max 49.993603317911
field sum 101.08093244858
field sqrsum 4999.9097484731
attr "" ""
attr recordingmode stats
attr source packetDelay
attr title "Packet delay"
par Network.Users[25] typename "\"pecsn_project.User\""
par Network.Users[25] CQIdistribution "\"binomial\""
statistic Network.Users[25] throughputStat:stats
field count 700
field mean 0.37
field stddev 6.9049514692401
field min 0
field max 167
field sum 259
field sqrsum 33423
attr "" ""
attr recordingmode stats
attr source throughput
attr title Throughput
statistic Network.Users[25] packetsReceivedStat:stats
field count 700
field mean 0.047142857142857
field stddev 0.91204331720965
field min 0
field max 23
field sum 33
field sqrsum 583
attr "" ""
attr recordingmode stats
attr source packetsReceived
attr title "Packets received per timeslot"
statistic Network.Users[25] packetDelayStat:stats
field count 33
field mean 14.498199056981
field stddev 22.14521208675
field min 1.076402391022
field max 67.130237824225
field sum 478.44056888038
field sqrsum 22629.659992311
attr "" ""
attr recordingmode stats
attr source packetDelay
attr title "Packet delay"
par Network.Users[26] typename "\"pecsn_project.User\""
par Network.Users[26] CQIdistribution "\"binomial\""
statistic Network.Users[26] throughputStat:stats
field count 700
field mean 1.2785714285714
field stddev 20.603577566598
field min 0
field max 375
field sum 895
field sqrsum 297875
attr "" ""
attr recordingmode stats
attr source throughput
attr title Throughput
statistic Network.Users[26] packetsReceivedStat:stats
field count 700
field mean 0.15857142857143
field stddev 2.5348496811828
field min 0
field max 48
field sum 111
field sqrsum 4509
attr "" ""
attr recordingmode stats
attr source packetsReceived
attr title "Packets received per timeslot"
statistic Network.Users[26] packetDelayStat:stats
field count 111
field mean 33.096357256437
field stddev 27.090265106626
field min 1.125264604518
field max 66.900629931186
field sum 3673.6956554646
field sqrsum 202313.01485488
attr "" ""
attr recordingmode stats
attr source packetDelay
attr title "Packet delay"
par Network.Users[27] typename "\"pecsn_project.User\""
par Network.Users[27] CQIdistribution "\"binomial\""
statistic Network.Users[27] throughputStat:stats
field count 700
field mean 1.0585714285714
field stddev 19.903867625517
field min 0
field max 500
field sum 741
field sqrsum 277703
attr "" ""
attr recordingmode stats
attr source throughput
attr title Throughput
statistic Network.Users[27] packetsReceivedStat:stats
field count 700
field mean 0.12428571428571
field stddev 2.3051187497479
field min 0
field max 58
field sum 87
field sqrsum 3725
attr "" ""
attr recordingmode stats
attr source packetsReceived
attr title "Packets received per timeslot"
statistic Network.Users[27] packetDelayStat:stats
field count 87
field mean 16.716006874425
field stddev 25.72705359436
field min 1.095265129105
field max 67.10587046253
field sum 1454.2925980749
field sqrsum 81231.755718494
attr "" ""
attr recordingmode stats
attr source packetDelay
attr title "Packet delay"
par Network.Users[28] typename "\"pecsn_project.User\""
par Network.Users[28] CQIdistribution "\"binomial\""
statistic Network.Users[28] throughputStat:stats
field count 700
field mean 0.97
field stddev 13.305068574998
field min 0
field max 262
field sum 679
field sqrsum 124399
attr "" ""
attr recordingmode stats
attr source throughput
attr title Throughput
statistic Network.Users[28] packetsReceivedStat:stats
field count 700
field mean 0.13
field stddev 1.8301129213032
field min 0
field max 38
field sum 91
field sqrsum 2353
attr "" ""
attr recordingmode stats
attr source packetsReceived
attr title "Packets received per timeslot"
statistic Network.Users[28] packetDelayStat:stats
field count 91
field mean 28.140872026642
field stddev 19.969169343839
field min 1.421661076643
field max 67.255755592658
field sum 2560.8193544244
field sqrsum 107952.78492167
attr "" ""
attr recordingmode stats
attr source packetDelay
attr title "Packet delay"
par Network.Users[29] typename "\"pecsn_project.User\""
par Network.Users[29] CQIdistribution "\"binomial\""
statistic Network.Users[29] throughputStat:stats
field count 700
field mean 1.0942857142857
field stddev 18.450016657271
field min 0
field max 390
field sum 766
field sqrsum 238780
attr "" ""
attr recordingmode stats
attr source throughput
attr title Throughput
statistic Network.Users[29] packetsReceivedStat:stats
field count 700
field mean 0.12857142857143
field stddev 2.2166067751744
field min 0
field max 48
field sum 90
field sqrsum 3446
attr "" ""
attr recordingmode stats
attr source packetsReceived
attr title "Packets received per timeslot"
statistic Network.Users[29] packetDelayStat:stats
field count 90
field mean 52.829213486103
field stddev 15.362522740752
field min 1.497014203816
field max 67.406229383706
field sum 4754.6292137493
field sqrsum 272187.95412188
attr "" ""
attr recordingmode stats
attr source packetDelay
attr title "Packet delay"
par Network.Users[30] typename "\"pecsn_project.User\""
par Network.Users[30] CQIdistribution "\"binomial\""
statistic Network.Users[30] throughputStat:stats
field count 700
field mean 0.98714285714286
field stddev 16.443812699258
field min 0
field max 373
field sum 691
field sqrsum 189691
attr "" ""
attr recordingmode stats
attr source throughput
attr title Throughput
statistic Network.Users[30] packetsReceivedStat:stats
field count 700
field mean 0.13142857142857
field stddev 2.1442635891301
field min 0
field max 47
field sum 92
field sqrsum 3226
attr "" ""
attr recordingmode stats
attr source packetsReceived
attr title "Packets received per timeslot"
statistic Network.Users[30] packetDelayStat:stats
field count 92
field mean 43.552877425125
field stddev 24.080640672741
field min 1.516142271657
field max 67.50206912315
field sum 4006.8647231115
field sqrsum 227279.31836881
attr "" ""
attr recordingmode stats
attr source packetDelay
attr title "Packet delay"
par Network.Users[31] typename "\"pecsn_project.User\""
par Network.Users[31] CQIdistribution "\"binomial\""
statistic Network.Users[31] throughputStat:stats
field count 700
field mean 0.46285714285714
field stddev 7.554857487298
field min 0
field max 166
field sum 324
field sqrsum 40046
attr "" ""
attr recordingmode stats
attr source throughput
attr title Throughput
statistic Network.Users[31] packetsReceivedStat:stats
field count 700
field mean 0.057142857142857
field stddev 0.92471569749493
field min 0
field max 20
field sum 40
field sqrsum 600
attr "" ""
attr recordingmode stats
attr source packetsReceived
attr title "Packets received per timeslot"
statistic Network.Users[31] packetDelayStat:stats
field count 40
field mean 30.329295701175
field stddev 29.68922922043
field min 1.634756198318
field max 67.729854576521
field sum 1213.171828047
field sqrsum 71171.210045599
attr "" ""
attr recordingmode stats
attr source packetDelay
attr title "Packet delay"
par Network.Users[32] typename "\"pecsn_project.User\""
par Network.Users[32] CQIdistribution "\"binomial\""
statistic Network.Users[32] throughputStat:stats
field count 700
field mean 0.18857142857143
field stddev 3.1448367137681
field min 0
field max 77
field sum 132
field sqrsum 6938
attr "" ""
attr recordingmode stats
attr source throughput
attr title Throughput
statistic Network.Users[32] packetsReceivedStat:stats
field count 700
field mean 0.025714285714286
field stddev 0.42039756178288
field min 0
field max 10
field sum 18
field sqrsum 124
attr "" ""
attr recordingmode stats
attr source packetsReceived
attr title "Packets received per timeslot"
statistic Network.Users[32] packetDelayStat:stats
field count 18
field mean 23.421382202309
field stddev 26.27103215606
field min 1.739134882333
field max 67.8164641732
field sum 421.58487964156
field sqrsum 21606.94181606
attr "" ""
attr recordingmode stats
attr source packetDelay
attr title "Packet delay"
par Network.Users[33] typename "\"pecsn_project.User\""
par Network.Users[33] CQIdistribution "\"binomial\""
statistic Network.Users[33] throughputStat:stats
field count 700
field mean 1.2085714285714
field stddev 18.265704966621
field min 0
field max 285
field sum 846
field sqrsum 234234
attr "" ""
attr recordingmode stats
attr source throughput
attr title Throughput
statistic Network.Users[33] packetsReceivedStat:stats
field count 700
field mean 0.15142857142857
field stddev 2.2472200506991
field min 0
field max 35
field sum 106
field sqrsum 3546
attr "" ""
attr recordingmode stats
attr source packetsReceived
attr title "Packets received per timeslot"
statistic Network.Users[33] packetDelayStat:stats
field count 106
field mean 49.049554132143
field stddev 15.878336707982
field min 1.786247011782
field max 67.604388188421
field sum 5199.2527380071
field sqrsum 281493.79416384
attr "" ""
attr recordingmode stats
attr source packetDelay
attr title "Packet delay"
par Network.Users[34] typename "\"pecsn_project.User\""
par Network.Users[34] CQIdistribution "\"binomial\""
statistic Network.Users[34] throughputStat:stats
field count 700
field mean 1.0485714285714
field stddev 16.403545996988
field min 0
field max 294
field sum 734
field sqrsum 188854
attr "" ""
attr recordingmode stats
attr source throughput
attr title Throughput
statistic Network.Users[34] packetsReceivedStat:stats
field count 700
field mean 0.13142857142857
field stddev 2.0764737674155
field min 0
field max 37
field sum 92
field sqrsum 3026
attr "" ""
attr recordingmode stats
attr source packetsReceived
attr title "Packets received per timeslot"
statistic Network.Users[34] packetDelayStat:stats
field count 92
field mean 53.789722309235
field stddev 12.86531210528
field min 33.753806429542
field max 67.864269936295
field sum 4948.6544524497
field sqrsum 281248.72805816
attr "" ""
attr recordingmode stats
attr source packetDelay
attr title "Packet delay"
par Network.Users[35] typename "\"pecsn_project.User\""
par Network.Users[35] CQIdistribution "\"binomial\""
statistic Network.Users[35] throughputStat:stats
field count 700
field mean 1.03
field stddev 17.690001459729
field min 0
field max 372
field sum 721
field sqrsum 219485
attr "" ""
attr recordingmode stats
attr source throughput
attr title Throughput
statistic Network.Users[35] packetsReceivedStat:stats
field count 700
field mean 0.13571428571429
field stddev 2.3205578552263
field min 0
field max 50
field sum 95
field sqrsum 3777
attr "" ""
attr recordingmode stats
attr source packetsReceived
attr title "Packets received per timeslot"
statistic Network.Users[35] packetDelayStat:stats
field count 95
field mean 47.908235437699
field stddev 15.832135158331
field min 33.681837591402
field max 67.925388822413
field sum 4551.2823665814
field sqrsum 241605.61850677
attr "" ""
attr recordingmode stats
attr source packetDelay
attr title "Packet delay"
par Network.Users[36] typename "\"pecsn_project.User\""
par Network.Users[36] CQIdistribution "\"binomial\""
statistic Network.Users[36] throughputStat:stats
field count 700
field mean 0.67714285714286
field stddev 12.759188912164
field min 0
field max 296
field sum 474
field sqrsum 114116
attr "" ""
attr recordingmode stats
attr source throughput
attr title Throughput
statistic Network.Users[36] packetsReceivedStat:stats
field count 700
field mean 0.081428571428571
field stddev 1.4940791928059
field min 0
field max 34
field sum 57
field sqrsum 1565
attr "" ""
attr recordingmode stats
attr source packetsReceived
attr title "Packets received per timeslot"
statistic Network.Users[36] packetDelayStat:stats
field count 57
field mean 46.772790519263
field stddev 16.213272706825
field min 33.852572243559
field max 68.12938881688
field sum 2666.049059598
field sqrsum 139419.28604315
attr "" ""
attr recordingmode stats
attr source packetDelay
attr title "Packet delay"
par Network.Users[37] typename "\"pecsn_project.User\""
par Network.Users[37] CQIdistribution "\"binomial\""
statistic Network.Users[37] throughputStat:stats
field count 700
field mean 0.87428571428571
field stddev 15.575233317939
field min 0
field max 302
field sum 612
field sqrsum 170104
attr "" ""
attr recordingmode stats
attr source throughput
attr title Throughput
statistic Network.Users[37] packetsReceivedStat:stats
field count 700
field mean 0.10714285714286
field stddev 1.9036010922282
field min 0
field max 38
field sum 75
field sqrsum 2541
attr "" ""
attr recordingmode stats
attr source packetsReceived
attr title "Packets received per timeslot"
statistic Network.Users[37] packetDelayStat:stats
field count 75
field mean 41.093076864833
field stddev 11.144952960944
field min 1.791685873103
field max 50.604909292018
field sum 3081.9807648625
field sqrsum 135839.61072755
attr "" ""
attr recordingmode stats
attr source packetDelay
attr title "Packet delay"
par Network.Users[38] typename "\"pecsn_project.User\""
par Network.Users[38] CQIdistribution "\"binomial\""
statistic Network.Users[38] throughputStat:stats
field count 700
field mean 1.3042857142857
field stddev 20.450931789947
field min 0
field max 384
field sum 913
field sqrsum 293541
attr "" ""
attr recordingmode stats
attr source throughput
attr title Throughput
statistic Network.Users[38] packetsReceivedStat:stats
field count 700
field mean 0.15714285714286
field stddev 2.4999897812994
field min 0
field max 48
field sum 110
field sqrsum 4386
attr "" ""
attr recordingmode stats
attr source packetsReceived
attr title "Packets received per timeslot"
statistic Network.Users[38] packetDelayStat:stats
field count 110
field mean 15.734081152461
field stddev 15.108241958175
field min 1.663433851495
field max 67.735391591514
field sum 1730.7489267707
field sqrsum 52111.972350621
attr "" ""
attr recordingmode stats
attr source packetDelay
attr title "Packet delay"
par Network.Users[39] typename "\"pecsn_project.User\""
par Network.Users[39] CQIdistribution "\"binomial\""
statistic Network.Users[39] throughputStat:stats
field count 700
field mean 1.6371428571429
field stddev 21.921887413316
field min 0
field max 373
field sum 1146
field sqrsum 337794
attr "" ""
attr recordingmode stats
attr source throughput
attr title Throughput
statistic Network.Users[39] packetsReceivedStat:stats
field count 700
field mean 0.21142857142857
field stddev 2.8361826718261
field min 0
field max 50
field sum 148
field sqrsum 5654
attr "" ""
attr recordingmode stats
attr source packetsReceived
attr title "Packets received per timeslot"
statistic Network.Users[39] packetDelayStat:stats
field count 148
field mean 27.838576955522
field stddev 24.502663043128
field min 1.751370237097
field max 67.802057057947
field sum 4120.1093894172
field sqrsum 202953.9152446
attr "" ""
attr recordingmode stats
attr source packetDelay
attr title "Packet delay"
par Network.Users[40] typename "\"pecsn_project.User\""
par Network.Users[40] CQIdistribution "\"binomial\""
statistic Network.Users[40] throughputStat:stats
field count 700
field mean 1.51
field stddev 18.65088222378
field min 0
field max 307
field sum 1057
field sqrsum 244747
attr "" ""
attr recordingmode stats
attr source throughput
attr title Throughput
statistic Network.Users[40] packetsReceivedStat:stats
field count 700
field mean 0.18285714285714
field stddev 2.251877069739
field min 0
field max 38
field sum 128
field sqrsum 3568
attr "" ""
attr recordingmode stats
attr source packetsReceived
attr title "Packets received per timeslot"
statistic Network.Users[40] packetDelayStat:stats
field count 128
field mean 31.570128662991
field stddev 21.204817913515
field min 2.019852901183
field max 67.947467568403
field sum 4040.9764688628
field sqrsum 184678.97349477
attr "" ""
attr recordingmode stats
attr source packetDelay
attr title "Packet delay"
par Network.Users[41] typename "\"pecsn_project.User\""
par Network.Users[41] CQIdistribution "\"binomial\""
statistic Network.Users[41] throughputStat:stats
field count 700
field mean 1.73
field stddev 27.105420486362
field min 0
field max 499
field sum 1211
field sqrsum 515653
attr "" ""
attr recordingmode stats
attr source throughput
attr title Throughput
statistic Network.Users[41] packetsReceivedStat:stats
field count 700
field mean 0.20285714285714
field stddev 3.1747380651225
field min 0
field max 60
field sum 142
field sqrsum 7074
attr "" ""
attr recordingmode stats
attr source packetsReceived
attr title "Packets received per timeslot"
statistic Network.Users[41] packetDelayStat:stats
field count 142
field mean 53.358991012783
field stddev 14.977234644525
field min 2.096844581373
field max 68.150822634546
field sum 7576.9767238151
field sqrsum 435928.60853131
attr "" ""
attr recordingmode stats
attr source packetDelay
attr title "Packet delay"
par Network.Users[42] typename "\"pecsn_project.User\""
par Network.Users[42] CQIdistribution "\"binomial\""
statistic Network.Users[42] throughputStat:stats
field count 700
field mean 0.63428571428571
field stddev 11.545541915202
field min 0
field max 284
field sum 444
field sqrsum 93458
attr "" ""
attr recordingmode stats
attr source throughput
attr title Throughput
statistic Network.Users[42] packetsReceivedStat:stats
field count 700
field mean 0.075714285714286
field stddev 1.3830090677001
field min 0
field max 34
field sum 53
field sqrsum 1341
attr "" ""
attr recordingmode stats
attr source packetsReceived
attr title "Packets received per timeslot"
statistic Network.Users[42] packetDelayStat:stats
field count 53
field mean 22.278000731282
field stddev 27.735628567383
field min 2.006191023742
field max 68.448399306554
field sum 1180.734038758
field sqrsum 66306.178564347
attr "" ""
attr recordingmode stats
attr source packetDelay
attr title "Packet delay"
par Network.Users[43] typename "\"pecsn_project.User\""
par Network.Users[43] CQIdistribution "\"binomial\""
statistic Network.Users[43] throughputStat:stats
field count 700
field mean 0.93285714285714
field stddev 23.636973180254
field min 0
field max 625
field sum 653
field sqrsum 391145
attr "" ""
attr recordingmode stats
attr source throughput
attr title Throughput
statistic Network.Users[43] packetsReceivedStat:stats
field count 700
field mean 0.11857142857143
field stddev 2.9880923841917
field min 0
field max 79
field sum 83
field sqrsum 6251
attr "" ""
attr recordingmode stats
attr source packetsReceived
attr title "Packets received per timeslot"
statistic Network.Users[43] packetDelayStat:stats
field count 83
field mean 51.245994417021
field stddev 6.3299728458511
field min 2.194721213502
field max 68.36319390271
field sum 4253.4175366127
field sqrsum 221256.23294531
attr "" ""
attr recordingmode stats
attr source packetDelay
attr title "Packet delay"
par Network.Users[44] typename "\"pecsn_project.User\""
par Network.Users[44] CQIdistribution "\"binomial\""
statistic Network.Users[44] throughputStat:stats
field count 700
field mean 0.92142857142857
field stddev 15.310271201091
field min 0
field max 283
field sum 645
field sqrsum 164443
attr "" ""
attr recordingmode stats
attr source throughput
attr title Throughput
statistic Network.Users[44] packetsReceivedStat:stats
field count 700
field mean 0.11571428571429
field stddev 1.9262612288275
field min 0
field max 36
field sum 81
field sqrsum 2603
attr "" ""
attr recordingmode stats
attr source packetsReceived
attr title "Packets received per timeslot"
statistic Network.Users[44] packetDelayStat:stats
field count 81
field mean 31.765014877662
field stddev 26.534218000938
field min 2.163871217625
field max 68.459699752298
field sum 2572.9662050906
field sqrsum 138055.48777813
attr "" ""
attr recordingmode stats
attr source packetDelay
attr title "Packet delay"
par Network.Users[45] typename "\"pecsn_project.User\""
par Network.Users[45] CQIdistribution "\"binomial\""
statistic Network.Users[45] throughputStat:stats
field count 700
field mean 1.6857142857143
field stddev 27.573723707855
field min 0
field max 618
field sum 1180
field sqrsum 533446
attr "" ""
attr recordingmode stats
attr source throughput
attr title Throughput
statistic Network.Users[45] packetsReceivedStat:stats
field count 700
field mean 0.18428571428571
field stddev 2.9300932675096
field min 0
field max 62
field sum 129
field sqrsum 6025
attr "" ""
attr recordingmode stats
attr source packetsReceived
attr title "Packets received per timeslot"
statistic Network.Users[45] packetDelayStat:stats
field count 129
field mean 29.844828561556
field stddev 17.987714483965
field min 2.250760063951
field max 51.11400315235
field sum 3849.9828844407
field sqrsum 156317.48681271
attr "" ""
attr recordingmode stats
attr source packetDelay
attr title "Packet delay"
par Network.Users[46] typename "\"pecsn_project.User\""
par Network.Users[46] CQIdistribution "\"binomial\""
statistic Network.Users[46] throughputStat:stats
field count 700
field mean 2.3328571428571
field stddev 30.695035184181
field min 0
field max 499
field sum 1633
field sqrsum 662397
attr "" ""
attr recordingmode stats
attr source throughput
attr title Throughput
statistic Network.Users[46] packetsReceivedStat:stats
field count 700
field mean 0.29
field stddev 3.8012365279776
field min 0
field max 55
field sum 203
field sqrsum 10159
attr "" ""
attr recordingmode stats
attr source packetsReceived
attr title "Packets received per timeslot"
statistic Network.Users[46] packetDelayStat:stats
field count 203
field mean 26.942456877986
field stddev 18.868972977172
field min 2.189030741517
field max 67.752581931942
field sum 5469.3187462312
field sqrsum 219276.58899737
attr "" ""
attr recordingmode stats
attr source packetDelay
attr title "Packet delay"
par Network.Users[47] typename "\"pecsn_project.User\""
par Network.Users[47] CQIdistribution "\"binomial\""
statistic Network.Users[47] throughputStat:stats
field count 700
field mean 1.52
field stddev 19.82934055336
field min 0
field max 371
field sum 1064
field sqrsum 276466
attr "" ""
attr recordingmode stats
attr source throughput
attr title Throughput
statistic Network.Users[47] packetsReceivedStat:stats
field count 700
field mean 0.20428571428571
field stddev 2.7132344388142
field min 0
field max 53
field sum 143
field sqrsum 5175
attr "" ""
attr recordingmode stats
attr source packetsReceived
attr title "Packets received per timeslot"
statistic Network.Users[47] packetDelayStat:stats
field count 143
field mean 33.280173065216
field stddev 22.330132093438
field min 2.450467792706
field max 68.264514677756
field sum 4759.0647483258
field sqrsum 229188.63995493
attr "" ""
attr recordingmode stats
attr source packetDelay
attr title "Packet delay"
par Network.Users[48] typename "\"pecsn_project.User\""
par Network.Users[48] CQIdistribution "\"binomial\""
statistic Network.Users[48] throughputStat:stats
field count 700
field mean 1.6385714285714
field stddev 23.116411209313
field min 0
field max 497
field sum 1147
field sqrsum 375403
attr "" ""
attr recordingmode stats
attr source throughput
attr title Throughput
statistic Network.Users[48] packetsReceivedStat:stats
field count 700
field mean 0.19857142857143
field stddev 2.6770359656557
field min 0
field max 54
field sum 139
field sqrsum 5037
attr "" ""
attr recordingmode stats
attr source packetsReceived
attr title "Packets received per timeslot"
statistic Network.Users[48] packetDelayStat:stats
field count 139
field mean 25.487708049044
field stddev 23.288976784268
field min 2.404482926196
field max 68.397583156943
field sum 3542.7914188171
field sqrsum 165145.5820343
attr "" ""
attr recordingmode stats
attr source packetDelay
attr title "Packet delay"
par Network.Users[49] typename "\"pecsn_project.User\""
par Network.Users[49] CQIdistribution "\"binomial\""
statistic Network.Users[49] throughputStat:stats
field count 700
field mean 2.4242857142857
field stddev 41.254903677716
field min 0
field max 886
field sum 1697
field sqrsum 1193789
attr "" ""
attr recordingmode stats
attr source throughput
attr title Throughput
statistic Network.Users[49] packetsReceivedStat:stats
field count 700
field mean 0.29285714285714
field stddev 5.0268185323852
field min 0
field max 109
field sum 205
field sqrsum 17723
attr "" ""
attr recordingmode stats
attr source packetsReceived
attr title "Packets received per timeslot"
statistic Network.Users[49] packetDelayStat:stats
field count 205
field mean 49.739912473382
field stddev 21.909725791086
field min 2.677923067418
field max 68.690149232837
field sum 10196.682057043
field sqrsum 605109.43422131
attr "" ""
attr recordingmode stats
attr source packetDelay
attr title "Packet delay"
par Network.Users[50] typename "\"pecsn_project.User\""
par Network.Users[50] CQIdistribution "\"binomial\""
statistic Network.Users[50] throughputStat:stats
field count 700
field mean 1.0757142857143
field stddev 14.537455306387
field min 0
field max 282
field sum 753
field sqrsum 148535
attr "" ""
attr recordingmode stats
attr source throughput
attr title Throughput
statistic Network.Users[50] packetsReceivedStat:stats
field count 700
field mean 0.14428571428571
field stddev 1.972060621334
field min 0
field max 39
field sum 101
field sqrsum 2733
attr "" ""
attr recordingmode stats
attr source packetsReceived
attr title "Packets received per timeslot"
statistic Network.Users[50] packetDelayStat:stats
field count 101
field mean 37.732124007552
field stddev 19.803729999265
field min 2.789442886274
field max 68.79472485469
field sum 3810.9445247628
field sqrsum 183013.80358263
attr "" ""
attr recordingmode stats
attr source packetDelay
attr title "Packet delay"
par Network.Users[51] typename "\"pecsn_project.User\""
par Network.Users[51] CQIdistribution "\"binomial\""
statistic Network.Users[51] throughputStat:stats
field count 700
field mean 2.1785714285714
field stddev 30.476114115414
field min 0
field max 494
field sum 1525
field sqrsum 652549
attr "" ""
attr recordingmode stats
attr source throughput
attr title Throughput
statistic Network.Users[51] packetsReceivedStat:stats
field count 700
field mean 0.27285714285714
field stddev 3.8592705185324
field min 0
field max 66
field sum 191
field sqrsum 10463
attr "" ""
attr recordingmode stats
attr source packetsReceived
attr title "Packets received per timeslot"
statistic Network.Users[51] packetDelayStat:stats
field count 191
field mean 36.825506863753
field stddev 28.491388235589
field min 2.517810095853
field max 68.650291231043
field sum 7033.6718109768
field sqrsum 413252.77823482
attr "" ""
attr recordingmode stats
attr source packetDelay
attr title "Packet delay"
par Network.Users[52] typename "\"pecsn_project.User\""
par Network.Users[52] CQIdistribution "\"binomial\""
statistic Network.Users[52] throughputStat:stats
field count 700
field mean 1.6414285714286
field stddev 24.171093726165
field min 0
field max 372
field sum 1149
field sqrsum 410271
attr "" ""
attr recordingmode stats
attr source throughput
attr title Throughput
statistic Network.Users[52] packetsReceivedStat:stats
field count 700
field mean 0.20714285714286
field stddev 3.1091181343378
field min 0
field max 51
field sum 145
field sqrsum 6787
attr "" ""
attr recordingmode stats
attr source packetsReceived
attr title "Packets received per timeslot"
statistic Network.Users[52] packetDelayStat:stats
field count 145
field mean 39.255626477255
field stddev 27.677142004663
field min 2.772421677011
field max 68.846012148244
field sum 5692.065839202
field sqrsum 333753.09376233
attr "" ""
attr recordingmode stats
attr source packetDelay
attr title "Packet delay"
par Network.Users[53] typename "\"pecsn_project.User\""
par Network.Users[53] CQIdistribution "\"binomial\""
statistic Network.Users[53] throughputStat:stats
field count 700
field mean 2.9357142857143
field stddev 37.462620514677
field min 0
field max 623
field sum 2055
field sqrsum 987043
attr "" ""
attr recordingmode stats
attr source throughput
attr title Throughput
statistic Network.Users[53] packetsReceivedStat:stats
field count 700
field mean 0.38714285714286
field stddev 4.8878823459569
field min 0
field max 81
field sum 271
field sqrsum 16805
attr "" ""
attr recordingmode stats
attr source packetsReceived
attr title "Packets received per timeslot"
statistic Network.Users[53] packetDelayStat:stats
field count 271
field mean 43.463743592836
field stddev 21.208739330104
field min 2.991026218812
field max 68.559907084244
field sum 11778.674513659
field sqrsum 633394.15739765
attr "" ""
attr recordingmode stats
attr source packetDelay
attr title "Packet delay"
par Network.Users[54] typename "\"pecsn_project.User\""
par Network.Users[54] CQIdistribution "\"binomial\""
statistic Network.Users[54] throughputStat:stats
field count 700
field mean 2.2128571428571
field stddev 31.143795995688
field min 0
field max 624
field sum 1549
field sqrsum 681413
attr "" ""
attr recordingmode stats
attr source throughput
attr title Throughput
statistic Network.Users[54] packetsReceivedStat:stats
field count 700
field mean 0.29285714285714
field stddev 4.1289938026346
field min 0
field max 84
field sum 205
field sqrsum 11977
attr "" ""
attr recordingmode stats
attr source packetsReceived
attr title "Packets received per timeslot"
statistic Network.Users[54] packetDelayStat:stats
field count 205
field mean 44.658071595481
field stddev 16.471055174853
field min 19.06012096189
field max 68.739097744527
field sum 9154.9046770736
field sqrsum 464184.70286745
attr "" ""
attr recordingmode stats
attr source packetDelay
attr title "Packet delay"
par Network.Users[55] typename "\"pecsn_project.User\""
par Network.Users[55] CQIdistribution "\"binomial\""
statistic Network.Users[55] throughputStat:stats
field count 700
field mean 2.5257142857143
field stddev 35.77313945745
field min 0
field max 625
field sum 1768
field sqrsum 898988
attr "" ""
attr recordingmode stats
attr source throughput
attr title Throughput
statistic Network.Users[55] packetsReceivedStat:stats
field count 700
field mean 0.30571428571429
field stddev 4.2870162202582
field min 0
field max 75
field sum 214
field sqrsum 12912
attr "" ""
attr recordingmode stats
attr source packetsReceived
attr title "Packets received per timeslot"
statistic Network.Users[55] packetDelayStat:stats
field count 214
field mean 43.959579971504
field stddev 20.553659373427
field min 3.099908548876
field max 68.954313263618
field sum 9407.3501139018
field sqrsum 503525.63025707
attr "" ""
attr recordingmode stats
attr source packetDelay
attr title "Packet delay"
par Network.Users[56] typename "\"pecsn_project.User\""
par Network.Users[56] CQIdistribution "\"binomial\""
statistic Network.Users[56] throughputStat:stats
field count 700
field mean 2.3314285714286
field stddev 30.774855234338
field min 0
field max 498
field sum 1632
field sqrsum 665822
attr "" ""
attr recordingmode stats
attr source throughput
attr title Throughput
statistic Network.Users[56] packetsReceivedStat:stats
field count 700
field mean 0.29142857142857
field stddev 3.9041719682166
field min 0
field max 68
field sum 204
field sqrsum 10714
attr "" ""
attr recordingmode stats
attr source packetsReceived
attr title "Packets received per timeslot"
statistic Network.Users[56] packetDelayStat:stats
field count 204
field mean 31.170387377376
field stddev 22.918779362844
field min 2.902617838676
field max 68.96146707947
field sum 6358.7590249848
field sqrsum 304834.88288716
attr "" ""
attr recordingmode stats
attr source packetDelay
attr title "Packet delay"
par Network.Users[57] typename "\"pecsn_project.User\""
par Network.Users[57] CQIdistribution "\"binomial\""
statistic Network.Users[57] throughputStat:stats
field count 700
field mean 2.8485714285714
field stddev 34.39570182607
field min 0
field max 499
field sum 1994
field sqrsum 832642
attr "" ""
attr recordingmode stats
attr source throughput
attr title Throughput
statistic Network.Users[57] packetsReceivedStat:stats
field count 700
field mean 0.35142857142857
field stddev 4.270795889185
field min 0
field max 64
field sum 246
field sqrsum 12836
attr "" ""
attr recordingmode stats
attr source packetsReceived
attr title "Packets received per timeslot"
statistic Network.Users[57] packetDelayStat:stats
field count 246
field mean 39.14736648678
field stddev 22.935823054683
field min 3.174296330885
field max 69.023675316584
field sum 9630.2521557478
field sqrsum 505881.74540411
attr "" ""
attr recordingmode stats
attr source packetDelay
attr title "Packet delay"
par Network.Users[58] typename "\"pecsn_project.User\""
par Network.Users[58] CQIdistribution "\"binomial\""
statistic Network.Users[58] throughputStat:stats
field count 700
field mean 2.1385714285714
field stddev 28.256174292586
field min 0
field max 488
field sum 1497
field sqrsum 561291
attr "" ""
attr recordingmode stats
attr source throughput
attr title Throughput
statistic Network.Users[58] packetsReceivedStat:stats
field count 700
field mean 0.26
field stddev 3.458041984039
field min 0
field max 61
field sum 182
field sqrsum 8406
attr "" ""
attr recordingmode stats
attr source packetsReceived
attr title "Packets received per timeslot"
statistic Network.Users[58] packetDelayStat:stats
field count 182
field mean 39.643711002382
field stddev 19.218789297877
field min 3.290052739763
field max 69.281750997688
field sum 7215.1554024335
field sqrsum 352890.03264714
attr "" ""
attr recordingmode stats
attr source packetDelay
attr title "Packet delay"
par Network.Users[59] typename "\"pecsn_project.User\""
par Network.Users[59] CQIdistribution "\"binomial\""
statistic Network.Users[59] throughputStat:stats
field count 700
field mean 2.0171428571429
field stddev 28.096548092513
field min 0
field max 497
field sum 1412
field sqrsum 554650
attr "" ""
attr recordingmode stats
attr source throughput
attr title Throughput
statistic Network.Users[59] packetsReceivedStat:stats
field count 700
field mean 0.25
field stddev 3.5431632367788
field min 0
field max 69
field sum 175
field sqrsum 8819
attr "" ""
attr recordingmode stats
attr source packetsReceived
attr title "Packets received per timeslot"
statistic Network.Users[59] packetDelayStat:stats
field count 175
field mean 20.805735840035
field stddev 17.053644685329
field min 3.007137798687
field max 51.948502231926
field sum 3641.0037720062
field sqrsum 126357.62536023
attr "" ""
attr recordingmode stats
attr source packetDelay
attr title "Packet delay"
par Network.Users[60] typename "\"pecsn_project.User\""
par Network.Users[60] CQIdistribution "\"binomial\""
statistic Network.Users[60] throughputStat:stats
field count 700
field mean 1.7414285714286
field stddev 23.142965466917
field min 0
field max 366
field sum 1219
field sqrsum 376505
attr "" ""
attr recordingmode stats
attr source throughput
attr title Throughput
statistic Network.Users[60] packetsReceivedStat:stats
field count 700
field mean 0.20285714285714
field stddev 2.7382717223355
field min 0
field max 48
field sum 142
field sqrsum 5270
attr "" ""
attr recordingmode stats
attr source packetsReceived
attr title "Packets received per timeslot"
statistic Network.Users[60] packetDelayStat:stats
field count 142
field mean 26.771586068731
field stddev 16.901471816977
field min 3.360153328594
field max 52.392480494376
field sum 3801.5652217598
field sqrsum 142051.95522103
attr "" ""
attr recordingmode stats
attr source packetDelay
attr title "Packet delay"
par Network.Users[61] typename "\"pecsn_project.User\""
par Network.Users[61] CQIdistribution "\"binomial\""
statistic Network.Users[61] throughputStat:stats
field count 700
field mean 3.3957142857143
field stddev 47.162025337838
field min 0
field max 893
field sum 2377
field sqrsum 1562827
attr "" ""
attr recordingmode stats
attr source throughput
attr title Throughput
statistic Network.Users[61] packetsReceivedStat:stats
field count 700
field mean 0.41571428571429
field stddev 5.7431961540743
field min 0
field max 108
field sum 291
field sqrsum 23177
attr "" ""
attr recordingmode stats
attr source packetsReceived
attr title "Packets received per timeslot"
statistic Network.Users[61] packetDelayStat:stats
field count 291
field mean 30.218285500784
field stddev 19.635112604211
field min 3.204705682862
field max 51.963846048838
field sum 8793.5210807282
field sqrsum 377531.04819882
attr "" ""
attr recordingmode stats
attr source packetDelay
attr title "Packet delay"
par Network.Users[62] typename "\"pecsn_project.User\""
par Network.Users[62] CQIdistribution "\"binomial\""
statistic Network.Users[62] throughputStat:stats
field count 700
field mean 3.29
field stddev 46.530377266724
field min 0
field max 897
field sum 2303
field sqrsum 1520965
attr "" ""
attr recordingmode stats
attr source throughput
attr title Throughput
statistic Network.Users[62] packetsReceivedStat:stats
field count 700
field mean 0.42571428571429
field stddev 6.1322031765165
field min 0
field max 119
field sum 298
field sqrsum 26412
attr "" ""
attr recordingmode stats
attr source packetsReceived
attr title "Packets received per timeslot"
statistic Network.Users[62] packetDelayStat:stats
field count 298
field mean 25.591311758391
field stddev 20.740098413632
field min 3.07767827949
field max 52.071865530639
field sum 7626.2109040006
field sqrsum 322919.79039505
attr "" ""
attr recordingmode stats
attr source packetDelay
attr title "Packet delay"
par Network.Users[63] typename "\"pecsn_project.User\""
par Network.Users[63] CQIdistribution "\"binomial\""
statistic Network.Users[63] throughputStat:stats
field count 700
field mean 1.7171428571429
field stddev 27.167103157513
field min 0
field max 498
field sum 1202
field sqrsum 517962
attr "" ""
attr recordingmode stats
attr source throughput
attr title Throughput
statistic Network.Users[63] packetsReceivedStat:stats
field count 700
field mean 0.20714285714286
field stddev 3.3213585232884
field min 0
field max 66
field sum 145
field sqrsum 7741
attr "" ""
attr recordingmode stats
attr source packetsReceived
attr title "Packets received per timeslot"
statistic Network.Users[63] packetDelayStat:stats
field count 145
field mean 22.237403502628
field stddev 15.893576231734
field min 3.539930691561
field max 52.536271094831
field sum 3224.4235078811
field sqrsum 108078.0368306
attr "" ""
attr recordingmode stats
attr source packetDelay
attr title "Packet delay"
par Network.Users[64] typename "\"pecsn_project.User\""
par Network.Users[64] CQIdistribution "\"binomial\""
statistic Network.Users[64] throughputStat:stats
field count 700
field mean 1.71
field stddev 30.227088297631
field min 0
field max 621
field sum 1197
field sqrsum 640707
attr "" ""
attr recordingmode stats
attr source throughput
attr title Throughput
statistic Network.Users[64] packetsReceivedStat:stats
field count 700
field mean 0.22571428571429
field stddev 3.9760256399624
field min 0
field max 83
field sum 158
field sqrsum 11086
attr "" ""
attr recordingmode stats
attr source packetsReceived
attr title "Packets received per timeslot"
statistic Network.Users[64] packetDelayStat:stats
field count 158
field mean 23.660709189911
field stddev 17.038897028951
field min 3.535322834819
field max 52.429725515232
field sum 3738.3920520059
field sqrsum 134033.87705861
attr "" ""
attr recordingmode stats
attr source packetDelay
attr title "Packet delay"
par Network.Users[65] typename "\"pecsn_project.User\""
par Network.Users[65] CQIdistribution "\"binomial\""
statistic Network.Users[65] throughputStat:stats
field count 700
field mean 3.2185714285714
field stddev 45.070308428265
field min 0
field max 897
field sum 2253
field sqrsum 1427153
attr "" ""
attr recordingmode stats
attr source throughput
attr title Throughput
statistic Network.Users[65] packetsReceivedStat:stats
field count 700
field mean 0.39571428571429
field stddev 5.522147778193
field min 0
field max 110
field sum 277
field sqrsum 21425
attr "" ""
attr recordingmode stats
attr source packetsReceived
attr title "Packets received per timeslot"
statistic Network.Users[65] packetDelayStat:stats
field count 277
field mean 25.480098205791
field stddev 16.401172428414
field min 3.701078003932
field max 52.120987110111
field sum 7057.9872030041
field sqrsum 254081.78120709
attr "" ""
attr recordingmode stats
attr source packetDelay
attr title "Packet delay"
par Network.Users[66] typename "\"pecsn_project.User\""
par Network.Users[66] CQIdistribution "\"binomial\""
statistic Network.Users[66] throughputStat:stats
field count 700
field mean 3.7542857142857
field stddev 50.746159740295
field min 0
field max 890
field sum 2628
field sqrsum 1809912
attr "" ""
attr recordingmode stats
attr source throughput
attr title Throughput
statistic Network.Users[66] packetsReceivedStat:stats
field count 700
field mean 0.48285714285714
field stddev 6.4958217324341
field min 0
field max 112
field sum 338
field sqrsum 29658
attr "" ""
attr recordingmode stats
attr source packetsReceived
attr title "Packets received per timeslot"
statistic Network.Users[66] packetDelayStat:stats
field count 338
field mean 30.430251494527
field stddev 18.478371685343
field min 3.614843215788
field max 52.065572305102
field sum 10285.42500515
field sqrsum 428056.79382257
attr "" ""
attr recordingmode stats
attr source packetDelay
attr title "Packet delay"
par Network.Users[67] typename "\"pecsn_project.User\""
par Network.Users[67] CQIdistribution "\"binomial\""
statistic Network.Users[67] throughputStat:stats
field count 700
field mean 3.6114285714286
field stddev 52.969939224768
field min 0
field max 967
field sum 2528
field sqrsum 1970394
attr "" ""
attr recordingmode stats
attr source throughput
attr title Throughput
statistic Network.Users[67] packetsReceivedStat:stats
field count 700
field mean 0.44
field stddev 6.4068632727496
field min 0
field max 117
field sum 308
field sqrsum 28828
attr "" ""
attr recordingmode stats
attr source packetsReceived
attr title "Packets received per timeslot"
statistic Network.Users[67] packetDelayStat:stats
field count 308
field mean 29.357483683525
field stddev 21.061261262876
field min 3.733391930609
field max 52.713238747577
field sum 9042.1049745256
field sqrsum 401631.50413118
attr "" ""
attr recordingmode stats
attr source packetDelay
attr title "Packet delay"
par Network.Users[68] typename "\"pecsn_project.User\""
par Network.Users[68] CQIdistribution "\"binomial\""
statistic Network.Users[68] throughputStat:stats
field count 700
field mean 2.71
field stddev 38.461435453807
field min 0
field max 621
field sum 1897
field sqrsum 1039159
attr "" ""
attr recordingmode stats
attr source throughput
attr title Throughput
statistic Network.Users[68] packetsReceivedStat:stats
field count 700
field mean 0.34857142857143
field stddev 4.9583311736707
field min 0
field max 81
field sum 244
field sqrsum 17270
attr "" ""
attr recordingmode stats
attr source packetsReceived
attr title "Packets received per timeslot"
statistic Network.Users[68] packetDelayStat:stats
field count 244
field mean 29.998164768352
field stddev 20.059432104201
field min 3.928917087156
field max 52.740069091135
field sum 7319.5522034779
field sqrsum 317351.67140185
attr "" ""
attr recordingmode stats
attr source packetDelay
attr title "Packet delay"
par Network.Users[69] typename "\"pecsn_project.User\""
par Network.Users[69] CQIdistribution "\"binomial\""
statistic Network.Users[69] throughputStat:stats
field count 700
field mean 3.3942857142857
field stddev 47.185464547698
field min 0
field max 898
field sum 2376
field sqrsum 1564366
attr "" ""
attr recordingmode stats
attr source throughput
attr title Throughput
statistic Network.Users[69] packetsReceivedStat:stats
field count 700
field mean 0.43428571428571
field stddev 6.0567153927575
field min 0
field max 117
field sum 304
field sqrsum 25774
attr "" ""
attr recordingmode stats
attr source packetsReceived
attr title "Packets received per timeslot"
statistic Network.Users[69] packetDelayStat:stats
field count 304
field mean 31.647586784451
field stddev 19.675332517204
field min 4.040206734909
field max 52.799200576056
field sum 9620.8663824732
field sqrsum 421774.17280869
attr "" ""
attr recordingmode stats
attr source packetDelay
attr title "Packet delay"
par Network.Users[70] typename "\"pecsn_project.User\""
par Network.Users[70] CQIdistribution "\"binomial\""
statistic Network.Users[70] throughputStat:stats
field count 700
field mean 2.7042857142857
field stddev 41.224355398597
field min 0
field max 892
field sum 1893
field sqrsum 1193033
attr "" ""
attr recordingmode stats
attr source throughput
attr title Throughput
statistic Network.Users[70] packetsReceivedStat:stats
field count 700
field mean 0.34285714285714
field stddev 5.2003788634012
field min 0
field max 111
field sum 240
field sqrsum 18986
attr "" ""
attr recordingmode stats
attr source packetsReceived
attr title "Packets received per timeslot"
statistic Network.Users[70] packetDelayStat:stats
field count 240
field mean 36.676987774314
field stddev 18.525843599226
field min 4.229954412947
field max 53.174085912252
field sum 8802.4770658354
field sqrsum 404874.78830138
attr "" ""
attr recordingmode stats
attr source packetDelay
attr title "Packet delay"
par Network.Users[71] typename "\"pecsn_project.User\""
par Network.Users[71] CQIdistribution "\"binomial\""
statistic Network.Users[71] throughputStat:stats
field count 700
field mean 2.0257142857143
field stddev 33.912146387298
field min 0
field max 624
field sum 1418
field sqrsum 806746
attr "" ""
attr recordingmode stats
attr source throughput
attr title Throughput
statistic Network.Users[71] packetsReceivedStat:stats
field count 700
field mean 0.24571428571429
field stddev 4.1728972830794
field min 0
field max 81
field sum 172
field sqrsum 12214
attr "" ""
attr recordingmode stats
attr source packetsReceived
attr title "Packets received per timeslot"
statistic Network.Users[71] packetDelayStat:stats
field count 172
field mean 28.540217699879
field stddev 23.313786769218
field min 4.276944557103
field max 53.482457751622
field sum 4908.9174443792
field sqrsum 233045.65628533
attr "" ""
attr recordingmode stats
attr source packetDelay
attr title "Packet delay"
par Network.Users[72] typename "\"pecsn_project.User\""
par Network.Users[72] CQIdistribution "\"binomial\""
statistic Network.Users[72] throughputStat:stats
field count 700
field mean 2.7357142857143
field stddev 50.30052897134
field min 0
field max 1248
field sum 1915
field sqrsum 1773809
attr "" ""
attr recordingmode stats
attr source throughput
attr title Throughput
statistic Network.Users[72] packetsReceivedStat:stats
field count 700
field mean 0.34714285714286
field stddev 6.3894409817821
field min 0
field max 158
field sum 243
field sqrsum 28621
attr "" ""
attr recordingmode stats
attr source packetsReceived
attr title "Packets received per timeslot"
statistic Network.Users[72] packetDelayStat:stats
field count 243
field mean 40.803271228108
field stddev 19.406443035941
field min 4.488202722238
field max 53.627387885192
field sum 9915.1949084302
field sqrsum 495712.01470459
attr "" ""
attr recordingmode stats
attr source packetDelay
attr title "Packet delay"
par Network.Users[73] typename "\"pecsn_project.User\""
par Network.Users[73] CQIdistribution "\"binomial\""
statistic Network.Users[73] throughputStat:stats
field count 700
field mean 3.3142857142857
field stddev 51.306463116961
field min 0
field max 900
field sum 2320
field sqrsum 1847704
attr "" ""
attr recordingmode stats
attr source throughput
attr title Throughput
statistic Network.Users[73] packetsReceivedStat:stats
field count 700
field mean 0.40428571428571
field stddev 6.2935563412427
field min 0
field max 111
field sum 283
field sqrsum 27801
attr "" ""
attr recordingmode stats
attr source packetsReceived
attr title "Packets received per timeslot"
statistic Network.Users[73] packetDelayStat:stats
field count 283
field mean 20.950834973169
field stddev 17.827182377237
field min 4.250206000598
field max 52.958513018545
field sum 5929.0862974067
field sqrsum 213841.28624482
attr "" ""
attr recordingmode stats
attr source packetDelay
attr title "Packet delay"
par Network.Users[74] typename "\"pecsn_project.User\""
par Network.Users[74] CQIdistribution "\"binomial\""
statistic Network.Users[74] throughputStat:stats
field count 700
field mean 1.9457142857143
field stddev 29.5583111566
field min 0
field max 614
field sum 1362
field sqrsum 613362
attr "" ""
attr recordingmode stats
attr source throughput
attr title Throughput
statistic Network.Users[74] packetsReceivedStat:stats
field count 700
field mean 0.22857142857143
field stddev 3.400207973827
field min 0
field max 68
field sum 160
field sqrsum 8118
attr "" ""
attr recordingmode stats
attr source packetsReceived
attr title "Packets received per timeslot"
statistic Network.Users[74] packetDelayStat:stats
field count 160
field mean 24.813326106576
field stddev 17.935171065783
field min 4.727582230324
field max 53.661425615655
field sum 3970.1321770521
field sqrsum 149657.77181967
attr "" ""
attr recordingmode stats
attr source packetDelay
attr title "Packet delay"
par Network.Users[75] typename "\"pecsn_project.User\""
par Network.Users[75] CQIdistribution "\"binomial\""
statistic Network.Users[75] throughputStat:stats
field count 700
field mean 3.5085714285714
field stddev 59.011588645984
field min 0
field max 1248
field sum 2456
field sqrsum 2442792
attr "" ""
attr recordingmode stats
attr source throughput
attr title Throughput
statistic Network.Users[75] packetsReceivedStat:stats
field count 700
field mean 0.42571428571429
field stddev 7.1680359815234
field min 0
field max 147
field sum 298
field sqrsum 36042
attr "" ""
attr recordingmode stats
attr source packetsReceived
attr title "Packets received per timeslot"
statistic Network.Users[75] packetDelayStat:stats
field count 298
field mean 16.05170016798
field stddev 14.745943735046
field min 4.235354973807
field max 52.911132994983
field sum 4783.4066500579
field sqrsum 141362.33774948
attr "" ""
attr recordingmode stats
attr source packetDelay
attr title "Packet delay"
par Network.Users[76] typename "\"pecsn_project.User\""
par Network.Users[76] CQIdistribution "\"binomial\""
statistic Network.Users[76] throughputStat:stats
field count 700
field mean 3.0142857142857
field stddev 39.97731576279
field min 0
field max 616
field sum 2110
field sqrsum 1123492
attr "" ""
attr recordingmode stats
attr source throughput
attr title Throughput
statistic Network.Users[76] packetsReceivedStat:stats
field count 700
field mean 0.38
field stddev 5.0347746375513
field min 0
field max 76
field sum 266
field sqrsum 17820
attr "" ""
attr recordingmode stats
attr source packetsReceived
attr title "Packets received per timeslot"
statistic Network.Users[76] packetDelayStat:stats
field count 266
field mean 29.523104643592
field stddev 17.673637531902
field min 4.710055842097
field max 53.31515513235
field sum 7853.1458351954
field sqrsum 314623.97413026
attr "" ""
attr recordingmode stats
attr source packetDelay
attr title "Packet delay"
par Network.Users[77] typename "\"pecsn_project.User\""
par Network.Users[77] CQIdistribution "\"binomial\""
statistic Network.Users[77] throughputStat:stats
field count 700
field mean 3.5714285714286
field stddev 52.71478889186
field min 0
field max 968
field sum 2500
field sqrsum 1951344
attr "" ""
attr recordingmode stats
attr source throughput
attr title Throughput
statistic Network.Users[77] packetsReceivedStat:stats
field count 700
field mean 0.48
field stddev 7.1813540153346
field min 0
field max 130
field sum 336
field sqrsum 36210
attr "" ""
attr recordingmode stats
attr source packetsReceived
attr title "Packets received per timeslot"
statistic Network.Users[77] packetDelayStat:stats
field count 336
field mean 24.739510914811
field stddev 17.63581049262
field min 4.582709526573
field max 53.043860822309
field sum 8312.4756673766
field sqrsum 309838.88943226
attr "" ""
attr recordingmode stats
attr source packetDelay
attr title "Packet delay"
par Network.Users[78] typename "\"pecsn_project.User\""
par Network.Users[78] CQIdistribution "\"binomial\""
statistic Network.Users[78] throughputStat:stats
field count 700
field mean 2.8585714285714
[...]
par Network.PG[49] NUM_USER 200
par Network.PG[49] LAMBDA 200
par Network.PG[50] typename "\"pecsn_project.PacketGenerator\""
par Network.PG[50] NUM_USER 200
par Network.PG[50] LAMBDA 200
par Network.PG[51] typename "\"pecsn_project.PacketGenerator\""
par Network.PG[51] NUM_USER 200
par Network.PG[51] LAMBDA 200
par Network.PG[52] typename "\"pecsn_project.PacketGenerator\""
par Network.PG[52] NUM_USER 200
par Network.PG[52] LAMBDA 200
par Network.PG[53] typename "\"pecsn_project.PacketGenerator\""
par Network.PG[53] NUM_USER 200
par Network.PG[53] LAMBDA 200
par Network.PG[54] typename "\"pecsn_project.PacketGenerator\""
par Network.PG[54] NUM_USER 200
par Network.PG[54] LAMBDA 200
par Network.PG[55] typename "\"pecsn_project.PacketGenerator\""
par Network.PG[55] NUM_USER 200
par Network.PG[55] LAMBDA 200
par Network.PG[56] typename "\"pecsn_project.PacketGenerator\""
par Network.PG[56] NUM_USER 200
par Network.PG[56] LAMBDA 200
par Network.PG[57] typename "\"pecsn_project.PacketGenerator\""
par Network.PG[57] NUM_USER 200
par Network.PG[57] LAMBDA 200
par Network.PG[58] typename "\"pecsn_project.PacketGenerator\""
par Network.PG[58] NUM_USER 200
par Network.PG[58] LAMBDA 200
par Network.PG[59] typename "\"pecsn_project.PacketGenerator\""
par Network.PG[59] NUM_USER 200
par Network.PG[59] LAMBDA 200
par Network.PG[60] typename "\"pecsn_project.PacketGenerator\""
par Network.PG[60] NUM_USER 200
par Network.PG[60] LAMBDA 200
par Network.PG[61] typename "\"pecsn_project.PacketGenerator\""
par Network.PG[61] NUM_USER 200
par Network.PG[61] LAMBDA 200
par Network.PG[62] typename "\"pecsn_project.PacketGenerator\""
par Network.PG[62] NUM_USER 200
par Network.PG[62] LAMBDA 200
par Network.PG[63] typename "\"pecsn_project.PacketGenerator\""
par Network.PG[63] NUM_USER 200
par Network.PG[63] LAMBDA 200
par Network.PG[64] typename "\"pecsn_project.PacketGenerator\""
par Network.PG[64] NUM_USER 200
par Network.PG[64] LAMBDA 200
par Network.PG[65] typename "\"pecsn_project.PacketGenerator\""
par Network.PG[65] NUM_USER 200
par Network.PG[65] LAMBDA 200
par Network.PG[66] typename "\"pecsn_project.PacketGenerator\""
par Network.PG[66] NUM_USER 200
par Network.PG[66] LAMBDA 200
par Network.PG[67] typename "\"pecsn_project.PacketGenerator\""
par Network.PG[67] NUM_USER 200
par Network.PG[67] LAMBDA 200
par Network.PG[68] typename "\"pecsn_project.PacketGenerator\""
par Network.PG[68] NUM_USER 200
par Network.PG[68] LAMBDA 200
par Network.PG[69] typename "\"pecsn_project.PacketGenerator\""
par Network.PG[69] NUM_USER 200
par Network.PG[69] LAMBDA 200
par Network.PG[70] typename "\"pecsn_project.PacketGenerator\""
par Network.PG[70] NUM_USER 200
par Network.PG[70] LAMBDA 200
par Network.PG[71] typename "\"pecsn_project.PacketGenerator\""
par Network.PG[71] NUM_USER 200
par Network.PG[71] LAMBDA 200
par Network.PG[72] typename "\"pecsn_project.PacketGenerator\""
par Network.PG[72] NUM_USER 200
par Network.PG[72] LAMBDA 200
par Network.PG[73] typename "\"pecsn_project.PacketGenerator\""
par Network.PG[73] NUM_USER 200
par Network.PG[73] LAMBDA 200
par Network.PG[74] typename "\"pecsn_project.PacketGenerator\""
par Network.PG[74] NUM_USER 200
par Network.PG[74] LAMBDA 200
par Network.PG[75] typename "\"pecsn_project.PacketGenerator\""
par Network.PG[75] NUM_USER 200
par Network.PG[75] LAMBDA 200
par Network.PG[76] typename "\"pecsn_project.PacketGenerator\""
par Network.PG[76] NUM_USER 200
par Network.PG[76] LAMBDA 200
par Network.PG[77] typename "\"pecsn_project.PacketGenerator\""
par Network.PG[77] NUM_USER 200
par Network.PG[77] LAMBDA 200
par Network.PG[78] typename "\"pecsn_project.PacketGenerator\""
par Network.PG[78] NUM_USER 200
par Network.PG[78] LAMBDA 200
par Network.PG[79] typename "\"pecsn_project.PacketGenerator\""
par Network.PG[79] NUM_USER 200
par Network.PG[79] LAMBDA 200
par Network.PG[80] typename "\"pecsn_project.PacketGenerator\""
par Network.PG[80] NUM_USER 200
par Network.PG[80] LAMBDA 200
par Network.PG[81] typename "\"pecsn_project.PacketGenerator\""
par Network.PG[81] NUM_USER 200
par Network.PG[81] LAMBDA 200
par Network.PG[82] typename "\"pecsn_project.PacketGenerator\""
par Network.PG[82] NUM_USER 200
par Network.PG[82] LAMBDA 200
par Network.PG[83] typename "\"pecsn_project.PacketGenerator\""
par Network.PG[83] NUM_USER 200
par Network.PG[83] LAMBDA 200
par Network.PG[84] typename "\"pecsn_project.PacketGenerator\""
par Network.PG[84] NUM_USER 200
par Network.PG[84] LAMBDA 200
par Network.PG[85] typename "\"pecsn_project.PacketGenerator\""
par Network.PG[85] NUM_USER 200
par Network.PG[85] LAMBDA 200
par Network.PG[86] typename "\"pecsn_project.PacketGenerator\""
par Network.PG[86] NUM_USER 200
par Network.PG[86] LAMBDA 200
par Network.PG[87] typename "\"pecsn_project.PacketGenerator\""
par Network.PG[87] NUM_USER 200
par Network.PG[87] LAMBDA 200
par Network.PG[88] typename "\"pecsn_project.PacketGenerator\""
par Network.PG[88] NUM_USER 200
par Network.PG[88] LAMBDA 200
par Network.PG[89] typename "\"pecsn_project.PacketGenerator\""
par Network.PG[89] NUM_USER 200
par Network.PG[89] LAMBDA 200
par Network.PG[90] typename "\"pecsn_project.PacketGenerator\""
par Network.PG[90] NUM_USER 200
par Network.PG[90] LAMBDA 200
par Network.PG[91] typename "\"pecsn_project.PacketGenerator\""
par Network.PG[91] NUM_USER 200
par Network.PG[91] LAMBDA 200
par Network.PG[92] typename "\"pecsn_project.PacketGenerator\""
par Network.PG[92] NUM_USER 200
par Network.PG[92] LAMBDA 200
par Network.PG[93] typename "\"pecsn_project.PacketGenerator\""
par Network.PG[93] NUM_USER 200
par Network.PG[93] LAMBDA 200
par Network.PG[94] typename "\"pecsn_project.PacketGenerator\""
par Network.PG[94] NUM_USER 200
par Network.PG[94] LAMBDA 200
par Network.PG[95] typename "\"pecsn_project.PacketGenerator\""
par Network.PG[95] NUM_USER 200
par Network.PG[95] LAMBDA 200
par Network.PG[96] typename "\"pecsn_project.PacketGenerator\""
par Network.PG[96] NUM_USER 200
par Network.PG[96] LAMBDA 200
par Network.PG[97] typename "\"pecsn_project.PacketGenerator\""
par Network.PG[97] NUM_USER 200
par Network.PG[97] LAMBDA 200
par Network.PG[98] typename "\"pecsn_project.PacketGenerator\""
par Network.PG[98] NUM_USER 200
par Network.PG[98] LAMBDA 200
par Network.PG[99] typename "\"pecsn_project.PacketGenerator\""
par Network.PG[99] NUM_USER 200
par Network.PG[99] LAMBDA 200
par Network.PG[100] typename "\"pecsn_project.PacketGenerator\""
par Network.PG[100] NUM_USER 200
par Network.PG[100] LAMBDA 200
par Network.PG[101] typename "\"pecsn_project.PacketGenerator\""
par Network.PG[101] NUM_USER 200
par Network.PG[101] LAMBDA 200
par Network.PG[102] typename "\"pecsn_project.PacketGenerator\""
par Network.PG[102] NUM_USER 200
par Network.PG[102] LAMBDA 200
par Network.PG[103] typename "\"pecsn_project.PacketGenerator\""
par Network.PG[103] NUM_USER 200
par Network.PG[103] LAMBDA 200
par Network.PG[104] typename "\"pecsn_project.PacketGenerator\""
par Network.PG[104] NUM_USER 200
par Network.PG[104] LAMBDA 200
par Network.PG[105] typename "\"pecsn_project.PacketGenerator\""
par Network.PG[105] NUM_USER 200
par Network.PG[105] LAMBDA 200
par Network.PG[106] typename "\"pecsn_project.PacketGenerator\""
par Network.PG[106] NUM_USER 200
par Network.PG[106] LAMBDA 200
par Network.PG[107] typename "\"pecsn_project.PacketGenerator\""
par Network.PG[107] NUM_USER 200
par Network.PG[107] LAMBDA 200
par Network.PG[108] typename "\"pecsn_project.PacketGenerator\""
par Network.PG[108] NUM_USER 200
par Network.PG[108] LAMBDA 200
par Network.PG[109] typename "\"pecsn_project.PacketGenerator\""
par Network.PG[109] NUM_USER 200
par Network.PG[109] LAMBDA 200
par Network.PG[110] typename "\"pecsn_project.PacketGenerator\""
par Network.PG[110] NUM_USER 200
par Network.PG[110] LAMBDA 200
par Network.PG[111] typename "\"pecsn_project.PacketGenerator\""
par Network.PG[111] NUM_USER 200
par Network.PG[111] LAMBDA 200
par Network.PG[112] typename "\"pecsn_project.PacketGenerator\""
par Network.PG[112] NUM_USER 200
par Network.PG[112] LAMBDA 200
par Network.PG[113] typename "\"pecsn_project.PacketGenerator\""
par Network.PG[113] NUM_USER 200
par Network.PG[113] LAMBDA 200
par Network.PG[114] typename "\"pecsn_project.PacketGenerator\""
par Network.PG[114] NUM_USER 200
par Network.PG[114] LAMBDA 200
par Network.PG[115] typename "\"pecsn_project.PacketGenerator\""
par Network.PG[115] NUM_USER 200
par Network.PG[115] LAMBDA 200
par Network.PG[116] typename "\"pecsn_project.PacketGenerator\""
par Network.PG[116] NUM_USER 200
par Network.PG[116] LAMBDA 200
par Network.PG[117] typename "\"pecsn_project.PacketGenerator\""
par Network.PG[117] NUM_USER 200
par Network.PG[117] LAMBDA 200
par Network.PG[118] typename "\"pecsn_project.PacketGenerator\""
par Network.PG[118] NUM_USER 200
par Network.PG[118] LAMBDA 200
par Network.PG[119] typename "\"pecsn_project.PacketGenerator\""
par Network.PG[119] NUM_USER 200
par Network.PG[119] LAMBDA 200
par Network.PG[120] typename "\"pecsn_project.PacketGenerator\""
par Network.PG[120] NUM_USER 200
par Network.PG[120] LAMBDA 200
par Network.PG[121] typename "\"pecsn_project.PacketGenerator\""
par Network.PG[121] NUM_USER 200
par Network.PG[121] LAMBDA 200
par Network.PG[122] typename "\"pecsn_project.PacketGenerator\""
par Network.PG[122] NUM_USER 200
par Network.PG[122] LAMBDA 200
par Network.PG[123] typename "\"pecsn_project.PacketGenerator\""
par Network.PG[123] NUM_USER 200
par Network.PG[123] LAMBDA 200
par Network.PG[124] typename "\"pecsn_project.PacketGenerator\""
par Network.PG[124] NUM_USER 200
par Network.PG[124] LAMBDA 200
par Network.PG[125] typename "\"pecsn_project.PacketGenerator\""
par Network.PG[125] NUM_USER 200
par Network.PG[125] LAMBDA 200
par Network.PG[126] typename "\"pecsn_project.PacketGenerator\""
par Network.PG[126] NUM_USER 200
par Network.PG[126] LAMBDA 200
par Network.PG[127] typename "\"pecsn_project.PacketGenerator\""
par Network.PG[127] NUM_USER 200
par Network.PG[127] LAMBDA 200
par Network.PG[128] typename "\"pecsn_project.PacketGenerator\""
par Network.PG[128] NUM_USER 200
par Network.PG[128] LAMBDA 200
par Network.PG[129] typename "\"pecsn_project.PacketGenerator\""
par Network.PG[129] NUM_USER 200
par Network.PG[129] LAMBDA 200
par Network.PG[130] typename "\"pecsn_project.PacketGenerator\""
par Network.PG[130] NUM_USER 200
par Network.PG[130] LAMBDA 200
par Network.PG[131] typename "\"pecsn_project.PacketGenerator\""
par Network.PG[131] NUM_USER 200
par Network.PG[131] LAMBDA 200
par Network.PG[132] typename "\"pecsn_project.PacketGenerator\""
par Network.PG[132] NUM_USER 200
par Network.PG[132] LAMBDA 200
par Network.PG[133] typename "\"pecsn_project.PacketGenerator\""
par Network.PG[133] NUM_USER 200
par Network.PG[133] LAMBDA 200
par Network.PG[134] typename "\"pecsn_project.PacketGenerator\""
par Network.PG[134] NUM_USER 200
par Network.PG[134] LAMBDA 200
par Network.PG[135] typename "\"pecsn_project.PacketGenerator\""
par Network.PG[135] NUM_USER 200
par Network.PG[135] LAMBDA 200
par Network.PG[136] typename "\"pecsn_project.PacketGenerator\""
par Network.PG[136] NUM_USER 200
par Network.PG[136] LAMBDA 200
par Network.PG[137] typename "\"pecsn_project.PacketGenerator\""
par Network.PG[137] NUM_USER 200
par Network.PG[137] LAMBDA 200
par Network.PG[138] typename "\"pecsn_project.PacketGenerator\""
par Network.PG[138] NUM_USER 200
par Network.PG[138] LAMBDA 200
par Network.PG[139] typename "\"pecsn_project.PacketGenerator\""
par Network.PG[139] NUM_USER 200
par Network.PG[139] LAMBDA 200
par Network.PG[140] typename "\"pecsn_project.PacketGenerator\""
par Network.PG[140] NUM_USER 200
par Network.PG[140] LAMBDA 200
par Network.PG[141] typename "\"pecsn_project.PacketGenerator\""
par Network.PG[141] NUM_USER 200
par Network.PG[141] LAMBDA 200
par Network.PG[142] typename "\"pecsn_project.PacketGenerator\""
par Network.PG[142] NUM_USER 200
par Network.PG[142] LAMBDA 200
par Network.PG[143] typename "\"pecsn_project.PacketGenerator\""
par Network.PG[143] NUM_USER 200
par Network.PG[143] LAMBDA 200
par Network.PG[144] typename "\"pecsn_project.PacketGenerator\""
par Network.PG[144] NUM_USER 200
par Network.PG[144] LAMBDA 200
par Network.PG[145] typename "\"pecsn_project.PacketGenerator\""
par Network.PG[145] NUM_USER 200
par Network.PG[145] LAMBDA 200
par Network.PG[146] typename "\"pecsn_project.PacketGenerator\""
par Network.PG[146] NUM_USER 200
par Network.PG[146] LAMBDA 200
par Network.PG[147] typename "\"pecsn_project.PacketGenerator\""
par Network.PG[147] NUM_USER 200
par Network.PG[147] LAMBDA 200
par Network.PG[148] typename "\"pecsn_project.PacketGenerator\""
par Network.PG[148] NUM_USER 200
par Network.PG[148] LAMBDA 200
par Network.PG[149] typename "\"pecsn_project.PacketGenerator\""
par Network.PG[149] NUM_USER 200
par Network.PG[149] LAMBDA 200
par Network.PG[150] typename "\"pecsn_project.PacketGenerator\""
par Network.PG[150] NUM_USER 200
par Network.PG[150] LAMBDA 200
par Network.PG[151] typename "\"pecsn_project.PacketGenerator\""
par Network.PG[151] NUM_USER 200
par Network.PG[151] LAMBDA 200
par Network.PG[152] typename "\"pecsn_project.PacketGenerator\""
par Network.PG[152] NUM_USER 200
par Network.PG[152] LAMBDA 200
par Network.PG[153] typename "\"pecsn_project.PacketGenerator\""
par Network.PG[153] NUM_USER 200
par Network.PG[153] LAMBDA 200
par Network.PG[154] typename "\"pecsn_project.PacketGenerator\""
par Network.PG[154] NUM_USER 200
par Network.PG[154] LAMBDA 200
par Network.PG[155] typename "\"pecsn_project.PacketGenerator\""
par Network.PG[155] NUM_USER 200
par Network.PG[155] LAMBDA 200
par Network.PG[156] typename "\"pecsn_project.PacketGenerator\""
par Network.PG[156] NUM_USER 200
par Network.PG[156] LAMBDA 200
par Network.PG[157] typename "\"pecsn_project.PacketGenerator\""
par Network.PG[157] NUM_USER 200
par Network.PG[157] LAMBDA 200
par Network.PG[158] typename "\"pecsn_project.PacketGenerator\""
par Network.PG[158] NUM_USER 200
par Network.PG[158] LAMBDA 200
par Network.PG[159] typename "\"pecsn_project.PacketGenerator\""
par Network.PG[159] NUM_USER 200
par Network.PG[159] LAMBDA 200
par Network.PG[160] typename "\"pecsn_project.PacketGenerator\""
par Network.PG[160] NUM_USER 200
par Network.PG[160] LAMBDA 200
par Network.PG[161] typename "\"pecsn_project.PacketGenerator\""
par Network.PG[161] NUM_USER 200
par Network.PG[161] LAMBDA 200
par Network.PG[162] typename "\"pecsn_project.PacketGenerator\""
par Network.PG[162] NUM_USER 200
par Network.PG[162] LAMBDA 200
par Network.PG[163] typename "\"pecsn_project.PacketGenerator\""
par Network.PG[163] NUM_USER 200
par Network.PG[163] LAMBDA 200
par Network.PG[164] typename "\"pecsn_project.PacketGenerator\""
par Network.PG[164] NUM_USER 200
par Network.PG[164] LAMBDA 200
par Network.PG[165] typename "\"pecsn_project.PacketGenerator\""
par Network.PG[165] NUM_USER 200
par Network.PG[165] LAMBDA 200
par Network.PG[166] typename "\"pecsn_project.PacketGenerator\""
par Network.PG[166] NUM_USER 200
par Network.PG[166] LAMBDA 200
par Network.PG[167] typename "\"pecsn_project.PacketGenerator\""
par Network.PG[167] NUM_USER 200
par Network.PG[167] LAMBDA 200
par Network.PG[168] typename "\"pecsn_project.PacketGenerator\""
par Network.PG[168] NUM_USER 200
par Network.PG[168] LAMBDA 200
par Network.PG[169] typename "\"pecsn_project.PacketGenerator\""
par Network.PG[169] NUM_USER 200
par Network.PG[169] LAMBDA 200
par Network.PG[170] typename "\"pecsn_project.PacketGenerator\""
par Network.PG[170] NUM_USER 200
par Network.PG[170] LAMBDA 200
par Network.PG[171] typename "\"pecsn_project.PacketGenerator\""
par Network.PG[171] NUM_USER 200
par Network.PG[171] LAMBDA 200
par Network.PG[172] typename "\"pecsn_project.PacketGenerator\""
par Network.PG[172] NUM_USER 200
par Network.PG[172] LAMBDA 200
par Network.PG[173] typename "\"pecsn_project.PacketGenerator\""
par Network.PG[173] NUM_USER 200
par Network.PG[173] LAMBDA 200
par Network.PG[174] typename "\"pecsn_project.PacketGenerator\""
par Network.PG[174] NUM_USER 200
par Network.PG[174] LAMBDA 200
par Network.PG[175] typename "\"pecsn_project.PacketGenerator\""
par Network.PG[175] NUM_USER 200
par Network.PG[175] LAMBDA 200
par Network.PG[176] typename "\"pecsn_project.PacketGenerator\""
par Network.PG[176] NUM_USER 200
par Network.PG[176] LAMBDA 200
par Network.PG[177] typename "\"pecsn_project.PacketGenerator\""
par Network.PG[177] NUM_USER 200
par Network.PG[177] LAMBDA 200
par Network.PG[178] typename "\"pecsn_project.PacketGenerator\""
par Network.PG[178] NUM_USER 200
par Network.PG[178] LAMBDA 200
par Network.PG[179] typename "\"pecsn_project.PacketGenerator\""
par Network.PG[179] NUM_USER 200
par Network.PG[179] LAMBDA 200
par Network.PG[180] typename "\"pecsn_project.PacketGenerator\""
par Network.PG[180] NUM_USER 200
par Network.PG[180] LAMBDA 200
par Network.PG[181] typename "\"pecsn_project.PacketGenerator\""
par Network.PG[181] NUM_USER 200
par Network.PG[181] LAMBDA 200
par Network.PG[182] typename "\"pecsn_project.PacketGenerator\""
par Network.PG[182] NUM_USER 200
par Network.PG[182] LAMBDA 200
par Network.PG[183] typename "\"pecsn_project.PacketGenerator\""
par Network.PG[183] NUM_USER 200
par Network.PG[183] LAMBDA 200
par Network.PG[184] typename "\"pecsn_project.PacketGenerator\""
par Network.PG[184] NUM_USER 200
par Network.PG[184] LAMBDA 200
par Network.PG[185] typename "\"pecsn_project.PacketGenerator\""
par Network.PG[185] NUM_USER 200
par Network.PG[185] LAMBDA 200
par Network.PG[186] typename "\"pecsn_project.PacketGenerator\""
par Network.PG[186] NUM_USER 200
par Network.PG[186] LAMBDA 200
par Network.PG[187] typename "\"pecsn_project.PacketGenerator\""
par Network.PG[187] NUM_USER 200
par Network.PG[187] LAMBDA 200
par Network.PG[188] typename "\"pecsn_project.PacketGenerator\""
par Network.PG[188] NUM_USER 200
par Network.PG[188] LAMBDA 200
par Network.PG[189] typename "\"pecsn_project.PacketGenerator\""
par Network.PG[189] NUM_USER 200
par Network.PG[189] LAMBDA 200
par Network.PG[190] typename "\"pecsn_project.PacketGenerator\""
par Network.PG[190] NUM_USER 200
par Network.PG[190] LAMBDA 200
par Network.PG[191] typename "\"pecsn_project.PacketGenerator\""
par Network.PG[191] NUM_USER 200
par Network.PG[191] LAMBDA 200
par Network.PG[192] typename "\"pecsn_project.PacketGenerator\""
par Network.PG[192] NUM_USER 200
par Network.PG[192] LAMBDA 200
par Network.PG[193] typename "\"pecsn_project.PacketGenerator\""
par Network.PG[193] NUM_USER 200
par Network.PG[193] LAMBDA 200
par Network.PG[194] typename "\"pecsn_project.PacketGenerator\""
par Network.PG[194] NUM_USER 200
par Network.PG[194] LAMBDA 200
par Network.PG[195] typename "\"pecsn_project.PacketGenerator\""
par Network.PG[195] NUM_USER 200
par Network.PG[195] LAMBDA 200
par Network.PG[196] typename "\"pecsn_project.PacketGenerator\""
par Network.PG[196] NUM_USER 200
par Network.PG[196] LAMBDA 200
par Network.PG[197] typename "\"pecsn_project.PacketGenerator\""
par Network.PG[197] NUM_USER 200
par Network.PG[197] LAMBDA 200
par Network.PG[198] typename "\"pecsn_project.PacketGenerator\""
par Network.PG[198] NUM_USER 200
par Network.PG[198] LAMBDA 200
par Network.PG[199] typename "\"pecsn_project.PacketGenerator\""
par Network.PG[199] NUM_USER 200
par Network.PG[199] LAMBDA 200
par Network typename "\"pecsn_project.simulations.Network\""
par Network NUM_USER 200
par Network lambda 10
par Network CQIRngMultiplier 0
par Network PktSizeRngMultiplier 1
par Network PktGenerationRngMultiplier 2

