version 3
run binomialCQI-201-20231215-15:28:28-18512
attr configname binomialCQI
attr datetime 20231215-15:28:28
attr datetimef 20231215-152828
attr experiment binomialCQI
attr inifile omnetpp.ini
attr iterationvars "$simulationTime=70s, $nUser=200, $lambda=25"
attr iterationvarsd simulationTime=70s/nUser=200/lambda=25
attr iterationvarsf simulationTime=70s,nUser=200,lambda=25-
attr measurement "$simulationTime=70s, $nUser=200, $lambda=25"
attr network Network
attr processid 18512
attr repetition 1
attr replication #1
attr resultdir results
attr runnumber 201
attr seedset 1
itervar lambda 25
itervar nUser 200
itervar simulationTime 70s
config **.Users[*].CQIdistribution "\"binomial\""
config network Network
config cpu-time-limit 60s
config sim-time-limit 70s
config num-rngs 600
config repeat 10
config seed-set 1
config **.NUM_USER 200
config **.LAMBDA 25
config **.CQIArrayLength 15
config **.CQIValues "\" 3 3 6 11 15 20 25 36 39 50 63 72 80 93 93 \""
config **.frameSize 25
config **.timeSlot 0.1

par Network.BS typename "\"pecsn_project.BaseStation\""
par Network.BS CQIValues "\" 3 3 6 11 15 20 25 36 39 50 63 72 80 93 93 \""
par Network.BS CQIArrayLength 15
par Network.BS frameSize 25
par Network.BS timeSlot 0.1
statistic Network.BS simFrameStat:stats
field count 700
field mean 24.962857142857
field stddev 0.94561277883086
field min 0
field max 25
field sum 17474
field sqrsum 436826
attr "" ""
attr recordingmode stats
attr source simFrame
attr title "Occupied frame slots"
par Network.Users[0] typename "\"pecsn_project.User\""
par Network.Users[0] CQIdistribution "\"binomial\""
statistic Network.Users[0] throughputStat:stats
field count 700
field mean 0.12571428571429
field stddev 2.6779813097482
field min 0
field max 68
field sum 88
field sqrsum 5024
attr "" ""
attr recordingmode stats
attr source throughput
attr title Throughput
statistic Network.Users[0] packetsReceivedStat:stats
field count 700
field mean 0.015714285714286
field stddev 0.32278106350923
field min 0
field max 8
field sum 11
field sqrsum 73
attr "" ""
attr recordingmode stats
attr source packetsReceived
attr title "Packets received per timeslot"
statistic Network.Users[0] packetDelayStat:stats
field count 11
field mean 48.8545495053
field stddev 31.326416762436
field min 0.061483276445
field max 67.291051172898
field sum 537.4000445583
field sqrsum 36067.880952763
attr "" ""
attr recordingmode stats
attr source packetDelay
attr title "Packet delay"
par Network.Users[1] typename "\"pecsn_project.User\""
par Network.Users[1] CQIdistribution "\"binomial\""
statistic Network.Users[1] throughputStat:stats
field count 700
field mean 0.075714285714286
field stddev 2.0032117069489
field min 0
field max 53
field sum 53
field sqrsum 2809
attr "" ""
attr recordingmode stats
attr source throughput
attr title Throughput
statistic Network.Users[1] packetsReceivedStat:stats
field count 700
field mean 0.0057142857142857
field stddev 0.15118578920369
field min 0
field max 4
field sum 4
field sqrsum 16
attr "" ""
attr recordingmode stats
attr source packetsReceived
attr title "Packets received per timeslot"
statistic Network.Users[1] packetDelayStat:stats
field count 4
field mean 0.0336023864
field stddev 0.027026050740533
field min 0.010282838534
field max 0.071604965654
field sum 0.1344095456
field sqrsum 0.0067077037429891
attr "" ""
attr recordingmode stats
attr source packetDelay
attr title "Packet delay"
par Network.Users[2] typename "\"pecsn_project.User\""
par Network.Users[2] CQIdistribution "\"binomial\""
statistic Network.Users[2] throughputStat:stats
field count 700
field mean 0
field stddev 0
field min 0
field max 0
field sum 0
field sqrsum 0
attr "" ""
attr recordingmode stats
attr source throughput
attr title Throughput
statistic Network.Users[2] packetsReceivedStat:stats
field count 700
field mean 0
field stddev 0
field min 0
field max 0
field sum 0
field sqrsum 0
attr "" ""
attr recordingmode stats
attr source packetsReceived
attr title "Packets received per timeslot"
statistic Network.Users[2] packetDelayStat:stats
field count 0
field mean nan
field stddev nan
field min nan
field max nan
field sum 0
field sqrsum 0
attr "" ""
attr recordingmode stats
attr source packetDelay
attr title "Packet delay"
par Network.Users[3] typename "\"pecsn_project.User\""
par Network.Users[3] CQIdistribution "\"binomial\""
statistic Network.Users[3] throughputStat:stats
field count 700
field mean 0
field stddev 0
field min 0
field max 0
field sum 0
field sqrsum 0
attr "" ""
attr recordingmode stats
attr source throughput
attr title Throughput
statistic Network.Users[3] packetsReceivedStat:stats
field count 700
field mean 0
field stddev 0
field min 0
field max 0
field sum 0
field sqrsum 0
attr "" ""
attr recordingmode stats
attr source packetsReceived
attr title "Packets received per timeslot"
statistic Network.Users[3] packetDelayStat:stats
field count 0
field mean nan
field stddev nan
field min nan
field max nan
field sum 0
field sqrsum 0
attr "" ""
attr recordingmode stats
attr source packetDelay
attr title "Packet delay"
par Network.Users[4] typename "\"pecsn_project.User\""
par Network.Users[4] CQIdistribution "\"binomial\""
statistic Network.Users[4] throughputStat:stats
field count 700
field mean 0.0042857142857143
field stddev 0.11338934190277
field min 0
field max 3
field sum 3
field sqrsum 9
attr "" ""
attr recordingmode stats
attr source throughput
attr title Throughput
statistic Network.Users[4] packetsReceivedStat:stats
field count 700
field mean 0.0014285714285714
field stddev 0.037796447300923
field min 0
field max 1
field sum 1
field sqrsum 1
attr "" ""
attr recordingmode stats
attr source packetsReceived
attr title "Packets received per timeslot"
statistic Network.Users[4] packetDelayStat:stats
field count 1
field mean 0.090133093574
field stddev nan
field min 0.090133093574
field max 0.090133093574
field sum 0.090133093574
field sqrsum 0.0081239745572194
attr "" ""
attr recordingmode stats
attr source packetDelay
attr title "Packet delay"
par Network.Users[5] typename "\"pecsn_project.User\""
par Network.Users[5] CQIdistribution "\"binomial\""
statistic Network.Users[5] throughputStat:stats
field count 700
field mean 0
field stddev 0
field min 0
field max 0
field sum 0
field sqrsum 0
attr "" ""
attr recordingmode stats
attr source throughput
attr title Throughput
statistic Network.Users[5] packetsReceivedStat:stats
field count 700
field mean 0
field stddev 0
field min 0
field max 0
field sum 0
field sqrsum 0
attr "" ""
attr recordingmode stats
attr source packetsReceived
attr title "Packets received per timeslot"
statistic Network.Users[5] packetDelayStat:stats
field count 0
field mean nan
field stddev nan
field min nan
field max nan
field sum 0
field sqrsum 0
attr "" ""
attr recordingmode stats
attr source packetDelay
attr title "Packet delay"
par Network.Users[6] typename "\"pecsn_project.User\""
par Network.Users[6] CQIdistribution "\"binomial\""
statistic Network.Users[6] throughputStat:stats
field count 700
field mean 0
field stddev 0
field min 0
field max 0
field sum 0
field sqrsum 0
attr "" ""
attr recordingmode stats
attr source throughput
attr title Throughput
statistic Network.Users[6] packetsReceivedStat:stats
field count 700
field mean 0
field stddev 0
field min 0
field max 0
field sum 0
field sqrsum 0
attr "" ""
attr recordingmode stats
attr source packetsReceived
attr title "Packets received per timeslot"
statistic Network.Users[6] packetDelayStat:stats
field count 0
field mean nan
field stddev nan
field min nan
field max nan
field sum 0
field sqrsum 0
attr "" ""
attr recordingmode stats
attr source packetDelay
attr title "Packet delay"
par Network.Users[7] typename "\"pecsn_project.User\""
par Network.Users[7] CQIdistribution "\"binomial\""
statistic Network.Users[7] throughputStat:stats
field count 700
field mean 0
field stddev 0
field min 0
field max 0
field sum 0
field sqrsum 0
attr "" ""
attr recordingmode stats
attr source throughput
attr title Throughput
statistic Network.Users[7] packetsReceivedStat:stats
field count 700
field mean 0
field stddev 0
field min 0
field max 0
field sum 0
field sqrsum 0
attr "" ""
attr recordingmode stats
attr source packetsReceived
attr title "Packets received per timeslot"
statistic Network.Users[7] packetDelayStat:stats
field count 0
field mean nan
field stddev nan
field min nan
field max nan
field sum 0
field sqrsum 0
attr "" ""
attr recordingmode stats
attr source packetDelay
attr title "Packet delay"
par Network.Users[8] typename "\"pecsn_project.User\""
par Network.Users[8] CQIdistribution "\"binomial\""
statistic Network.Users[8] throughputStat:stats
field count 700
field mean 0.03
field stddev 0.79372539331938
field min 0
field max 21
field sum 21
field sqrsum 441
attr "" ""
attr recordingmode stats
attr source throughput
attr title Throughput
statistic Network.Users[8] packetsReceivedStat:stats
field count 700
field mean 0.0042857142857143
field stddev 0.11338934190277
field min 0
field max 3
field sum 3
field sqrsum 9
attr "" ""
attr recordingmode stats
attr source packetsReceived
attr title "Packets received per timeslot"
statistic Network.Users[8] packetDelayStat:stats
field count 3
field mean 0.054293377336333
field stddev 0.016402778146168
field min 0.040379275355
field max 0.07237919535
field sum 0.162880132009
field sqrsum 0.0093814147295813
attr "" ""
attr recordingmode stats
attr source packetDelay
attr title "Packet delay"
par Network.Users[9] typename "\"pecsn_project.User\""
par Network.Users[9] CQIdistribution "\"binomial\""
statistic Network.Users[9] throughputStat:stats
field count 700
field mean 0.17857142857143
field stddev 3.4638287406058
field min 0
field max 82
field sum 125
field sqrsum 8409
attr "" ""
attr recordingmode stats
attr source throughput
attr title Throughput
statistic Network.Users[9] packetsReceivedStat:stats
field count 700
field mean 0.028571428571429
field stddev 0.54211551307037
field min 0
field max 13
field sum 20
field sqrsum 206
attr "" ""
attr recordingmode stats
attr source packetsReceived
attr title "Packets received per timeslot"
statistic Network.Users[9] packetDelayStat:stats
field count 20
field mean 46.964669464527
field stddev 31.478381731935
field min 0.043463137515
field max 67.212684672164
field sum 939.29338929055
field sqrsum 62940.485371013
attr "" ""
attr recordingmode stats
attr source packetDelay
attr title "Packet delay"
par Network.Users[10] typename "\"pecsn_project.User\""
par Network.Users[10] CQIdistribution "\"binomial\""
statistic Network.Users[10] throughputStat:stats
field count 700
field mean 0.14714285714286
field stddev 2.9887352375293
field min 0
field max 75
field sum 103
field sqrsum 6259
attr "" ""
attr recordingmode stats
attr source throughput
attr title Throughput
statistic Network.Users[10] packetsReceivedStat:stats
field count 700
field mean 0.021428571428571
field stddev 0.43237801281242
field min 0
field max 11
field sum 15
field sqrsum 131
attr "" ""
attr recordingmode stats
attr source packetsReceived
attr title "Packets received per timeslot"
statistic Network.Users[10] packetDelayStat:stats
field count 15
field mean 53.722403525403
field stddev 27.741717574272
field min 0.061271785065
field max 67.243260802763
field sum 805.83605288105
field sqrsum 54065.890123784
attr "" ""
attr recordingmode stats
attr source packetDelay
attr title "Packet delay"
par Network.Users[11] typename "\"pecsn_project.User\""
par Network.Users[11] CQIdistribution "\"binomial\""
statistic Network.Users[11] throughputStat:stats
field count 700
field mean 0.22
field stddev 4.0093096241591
field min 0
field max 83
field sum 154
field sqrsum 11270
attr "" ""
attr recordingmode stats
attr source throughput
attr title Throughput
statistic Network.Users[11] packetsReceivedStat:stats
field count 700
field mean 0.025714285714286
field stddev 0.46252578763841
field min 0
field max 10
field sum 18
field sqrsum 150
attr "" ""
attr recordingmode stats
attr source packetsReceived
attr title "Packets received per timeslot"
statistic Network.Users[11] packetDelayStat:stats
field count 18
field mean 41.120060148962
field stddev 33.619235095014
field min 0.018105513508
field max 67.381180646295
field sum 740.16108268132
field sqrsum 49649.768702132
attr "" ""
attr recordingmode stats
attr source packetDelay
attr title "Packet delay"
par Network.Users[12] typename "\"pecsn_project.User\""
par Network.Users[12] CQIdistribution "\"binomial\""
statistic Network.Users[12] throughputStat:stats
field count 700
field mean 0
field stddev 0
field min 0
field max 0
field sum 0
field sqrsum 0
attr "" ""
attr recordingmode stats
attr source throughput
attr title Throughput
statistic Network.Users[12] packetsReceivedStat:stats
field count 700
field mean 0
field stddev 0
field min 0
field max 0
field sum 0
field sqrsum 0
attr "" ""
attr recordingmode stats
attr source packetsReceived
attr title "Packets received per timeslot"
statistic Network.Users[12] packetDelayStat:stats
field count 0
field mean nan
field stddev nan
field min nan
field max nan
field sum 0
field sqrsum 0
attr "" ""
attr recordingmode stats
attr source packetDelay
attr title "Packet delay"
par Network.Users[13] typename "\"pecsn_project.User\""
par Network.Users[13] CQIdistribution "\"binomial\""
statistic Network.Users[13] throughputStat:stats
field count 700
field mean 1.2528571428571
field stddev 12.214361272524
field min 0
field max 159
field sum 877
field sqrsum 105383
attr "" ""
attr recordingmode stats
attr source throughput
attr title Throughput
statistic Network.Users[13] packetsReceivedStat:stats
field count 700
field mean 0.17285714285714
field stddev 1.7117302466684
field min 0
field max 25
field sum 121
field sqrsum 2069
attr "" ""
attr recordingmode stats
attr source packetsReceived
attr title "Packets received per timeslot"
statistic Network.Users[13] packetDelayStat:stats
field count 121
field mean 65.811285627175
field stddev 1.0497123579828
field min 63.936645514559
field max 67.54283125892
field sum 7963.1655608882
field sqrsum 524198.39074824
attr "" ""
attr recordingmode stats
attr source packetDelay
attr title "Packet delay"
par Network.Users[14] typename "\"pecsn_project.User\""
par Network.Users[14] CQIdistribution "\"binomial\""
statistic Network.Users[14] throughputStat:stats
field count 700
field mean 0.18285714285714
field stddev 4.5414313168742
field min 0
field max 120
field sum 128
field sqrsum 14440
attr "" ""
attr recordingmode stats
attr source throughput
attr title Throughput
statistic Network.Users[14] packetsReceivedStat:stats
field count 700
field mean 0.018571428571429
field stddev 0.4190707265613
field min 0
field max 11
field sum 13
field sqrsum 123
attr "" ""
attr recordingmode stats
attr source packetsReceived
attr title "Packets received per timeslot"
statistic Network.Users[14] packetDelayStat:stats
field count 13
field mean 5.4435766348432
field stddev 18.814219026535
field min 0.103012475326
field max 68.060299375513
field sum 70.766496252962
field sqrsum 4632.9208964737
attr "" ""
attr recordingmode stats
attr source packetDelay
attr title "Packet delay"
par Network.Users[15] typename "\"pecsn_project.User\""
par Network.Users[15] CQIdistribution "\"binomial\""
statistic Network.Users[15] throughputStat:stats
field count 700
field mean 0.14428571428571
field stddev 2.7354576193925
field min 0
field max 59
field sum 101
field sqrsum 5245
attr "" ""
attr recordingmode stats
attr source throughput
attr title Throughput
statistic Network.Users[15] packetsReceivedStat:stats
field count 700
field mean 0.017142857142857
field stddev 0.33786819202902
field min 0
field max 8
field sum 12
field sqrsum 80
attr "" ""
attr recordingmode stats
attr source packetsReceived
attr title "Packets received per timeslot"
statistic Network.Users[15] packetDelayStat:stats
field count 12
field mean 0.16076854566392
field stddev 0.087742953164499
field min 0.003592190328
field max 0.334025135314
field sum 1.929222547967
field sqrsum 0.39484538742899
attr "" ""
attr recordingmode stats
attr source packetDelay
attr title "Packet delay"
par Network.Users[16] typename "\"pecsn_project.User\""
par Network.Users[16] CQIdistribution "\"binomial\""
statistic Network.Users[16] throughputStat:stats
field count 700
field mean 0.40285714285714
field stddev 6.1274487716181
field min 0
field max 109
field sum 282
field sqrsum 26358
attr "" ""
attr recordingmode stats
attr source throughput
attr title Throughput
statistic Network.Users[16] packetsReceivedStat:stats
field count 700
field mean 0.058571428571429
field stddev 0.8761655400356
field min 0
field max 15
field sum 41
field sqrsum 539
attr "" ""
attr recordingmode stats
attr source packetsReceived
attr title "Packets received per timeslot"
statistic Network.Users[16] packetDelayStat:stats
field count 41
field mean 46.313345317339
field stddev 31.752053337193
field min 0.023765361719
field max 68.091431335718
field sum 1898.8471580109
field sqrsum 128269.67977892
attr "" ""
attr recordingmode stats
attr source packetDelay
attr title "Packet delay"
par Network.Users[17] typename "\"pecsn_project.User\""
par Network.Users[17] CQIdistribution "\"binomial\""
statistic Network.Users[17] throughputStat:stats
field count 700
field mean 0.011428571428571
field stddev 0.30237157840738
field min 0
field max 8
field sum 8
field sqrsum 64
attr "" ""
attr recordingmode stats
attr source throughput
attr title Throughput
statistic Network.Users[17] packetsReceivedStat:stats
field count 700
field mean 0.0014285714285714
field stddev 0.037796447300923
field min 0
field max 1
field sum 1
field sqrsum 1
attr "" ""
attr recordingmode stats
attr source packetsReceived
attr title "Packets received per timeslot"
statistic Network.Users[17] packetDelayStat:stats
field count 1
field mean 0.472422557599
field stddev nan
field min 0.472422557599
field max 0.472422557599
field sum 0.472422557599
field sqrsum 0.22318307292838
attr "" ""
attr recordingmode stats
attr source packetDelay
attr title "Packet delay"
par Network.Users[18] typename "\"pecsn_project.User\""
par Network.Users[18] CQIdistribution "\"binomial\""
statistic Network.Users[18] throughputStat:stats
field count 700
field mean 0.014285714285714
field stddev 0.37796447300923
field min 0
field max 10
field sum 10
field sqrsum 100
attr "" ""
attr recordingmode stats
attr source throughput
attr title Throughput
statistic Network.Users[18] packetsReceivedStat:stats
field count 700
field mean 0.0014285714285714
field stddev 0.037796447300923
field min 0
field max 1
field sum 1
field sqrsum 1
attr "" ""
attr recordingmode stats
attr source packetsReceived
attr title "Packets received per timeslot"
statistic Network.Users[18] packetDelayStat:stats
field count 1
field mean 0.420423780889
field stddev nan
field min 0.420423780889
field max 0.420423780889
field sum 0.420423780889
field sqrsum 0.176756155537
attr "" ""
attr recordingmode stats
attr source packetDelay
attr title "Packet delay"
par Network.Users[19] typename "\"pecsn_project.User\""
par Network.Users[19] CQIdistribution "\"binomial\""
statistic Network.Users[19] throughputStat:stats
field count 700
field mean 0.20857142857143
field stddev 3.7999978486984
field min 0
field max 82
field sum 146
field sqrsum 10124
attr "" ""
attr recordingmode stats
attr source throughput
attr title Throughput
statistic Network.Users[19] packetsReceivedStat:stats
field count 700
field mean 0.022857142857143
field stddev 0.40319589823353
field min 0
field max 8
field sum 16
field sqrsum 114
attr "" ""
attr recordingmode stats
attr source packetsReceived
attr title "Packets received per timeslot"
statistic Network.Users[19] packetDelayStat:stats
field count 16
field mean 0.27580074207806
field stddev 0.15230252741166
field min 0.003443183886
field max 0.506140292541
field sum 4.412811873249
field sqrsum 1.5649976871327
attr "" ""
attr recordingmode stats
attr source packetDelay
attr title "Packet delay"
par Network.Users[20] typename "\"pecsn_project.User\""
par Network.Users[20] CQIdistribution "\"binomial\""
statistic Network.Users[20] throughputStat:stats
field count 700
field mean 0.19142857142857
field stddev 3.6562503700996
field min 0
field max 81
field sum 134
field sqrsum 9370
attr "" ""
attr recordingmode stats
attr source throughput
attr title Throughput
statistic Network.Users[20] packetsReceivedStat:stats
field count 700
field mean 0.024285714285714
field stddev 0.45480606764439
field min 0
field max 9
field sum 17
field sqrsum 145
attr "" ""
attr recordingmode stats
attr source packetsReceived
attr title "Packets received per timeslot"
statistic Network.Users[20] packetDelayStat:stats
field count 17
field mean 0.53185431644129
field stddev 0.11911180128828
field min 0.341310978974
field max 0.698290006805
field sum 9.041523379502
field sqrsum 5.0357751758913
attr "" ""
attr recordingmode stats
attr source packetDelay
attr title "Packet delay"
par Network.Users[21] typename "\"pecsn_project.User\""
par Network.Users[21] CQIdistribution "\"binomial\""
statistic Network.Users[21] throughputStat:stats
field count 700
field mean 0.22142857142857
field stddev 5.6359106324768
field min 0
field max 149
field sum 155
field sqrsum 22237
attr "" ""
attr recordingmode stats
attr source throughput
attr title Throughput
statistic Network.Users[21] packetsReceivedStat:stats
field count 700
field mean 0.035714285714286
field stddev 0.83905657803297
field min 0
field max 22
field sum 25
field sqrsum 493
attr "" ""
attr recordingmode stats
attr source packetsReceived
attr title "Packets received per timeslot"
statistic Network.Users[21] packetDelayStat:stats
field count 25
field mean 0.42433466074124
field stddev 0.23503442024918
field min 0.015699570129
field max 0.771287734065
field sum 10.608366518531
field sqrsum 5.8272858965044
attr "" ""
attr recordingmode stats
attr source packetDelay
attr title "Packet delay"
par Network.Users[22] typename "\"pecsn_project.User\""
par Network.Users[22] CQIdistribution "\"binomial\""
statistic Network.Users[22] throughputStat:stats
field count 700
field mean 0
field stddev 0
field min 0
field max 0
field sum 0
field sqrsum 0
attr "" ""
attr recordingmode stats
attr source throughput
attr title Throughput
statistic Network.Users[22] packetsReceivedStat:stats
field count 700
field mean 0
field stddev 0
field min 0
field max 0
field sum 0
field sqrsum 0
attr "" ""
attr recordingmode stats
attr source packetsReceived
attr title "Packets received per timeslot"
statistic Network.Users[22] packetDelayStat:stats
field count 0
field mean nan
field stddev nan
field min nan
field max nan
field sum 0
field sqrsum 0
attr "" ""
attr recordingmode stats
attr source packetDelay
attr title "Packet delay"
par Network.Users[23] typename "\"pecsn_project.User\""
par Network.Users[23] CQIdistribution "\"binomial\""
statistic Network.Users[23] throughputStat:stats
field count 700
field mean 0.21714285714286
field stddev 3.901687813078
field min 0
field max 83
field sum 152
field sqrsum 10674
attr "" ""
attr recordingmode stats
attr source throughput
attr title Throughput
statistic Network.Users[23] packetsReceivedStat:stats
field count 700
field mean 0.028571428571429
field stddev 0.51505041133964
field min 0
field max 11
field sum 20
field sqrsum 186
attr "" ""
attr recordingmode stats
attr source packetsReceived
attr title "Packets received per timeslot"
statistic Network.Users[23] packetDelayStat:stats
field count 20
field mean 0.5537966645853
field stddev 0.27017371961564
field min 0.019676652245
field max 0.9658087587
field sum 11.075933291706
field sqrsum 7.5206978507641
attr "" ""
attr recordingmode stats
attr source packetDelay
attr title "Packet delay"
par Network.Users[24] typename "\"pecsn_project.User\""
par Network.Users[24] CQIdistribution "\"binomial\""
statistic Network.Users[24] throughputStat:stats
field count 700
field mean 0.022857142857143
field stddev 0.60474315681476
field min 0
field max 16
field sum 16
field sqrsum 256
attr "" ""
attr recordingmode stats
attr source throughput
attr title Throughput
statistic Network.Users[24] packetsReceivedStat:stats
field count 700
field mean 0.0042857142857143
field stddev 0.11338934190277
field min 0
field max 3
field sum 3
field sqrsum 9
attr "" ""
attr recordingmode stats
attr source packetsReceived
attr title "Packets received per timeslot"
statistic Network.Users[24] packetDelayStat:stats
field count 3
field mean 1.018454668965
field stddev 0.051307616799955
field min 0.983425622168
field max 1.077347881952
field sum 3.055364006895
field sqrsum 3.1170146812932
attr "" ""
attr recordingmode stats
attr source packetDelay
attr title "Packet delay"
par Network.Users[25] typename "\"pecsn_project.User\""
par Network.Users[25] CQIdistribution "\"binomial\""
statistic Network.Users[25] throughputStat:stats
field count 700
field mean 0.25285714285714
field stddev 4.3979843682269
field min 0
field max 84
field sum 177
field sqrsum 13565
attr "" ""
attr recordingmode stats
attr source throughput
attr title Throughput
statistic Network.Users[25] packetsReceivedStat:stats
field count 700
field mean 0.034285714285714
field stddev 0.58982447239518
field min 0
field max 11
field sum 24
field sqrsum 244
attr "" ""
attr recordingmode stats
attr source packetsReceived
attr title "Packets received per timeslot"
statistic Network.Users[25] packetDelayStat:stats
field count 24
field mean 34.561454376369
field stddev 34.386702818713
field min 0.757278303724
field max 68.320904675367
field sum 829.47490503286
field sqrsum 55864.101693714
attr "" ""
attr recordingmode stats
attr source packetDelay
attr title "Packet delay"
par Network.Users[26] typename "\"pecsn_project.User\""
par Network.Users[26] CQIdistribution "\"binomial\""
statistic Network.Users[26] throughputStat:stats
field count 700
field mean 0.41428571428571
field stddev 8.1280750441893
field min 0
field max 198
field sum 290
field sqrsum 46300
attr "" ""
attr recordingmode stats
attr source throughput
attr title Throughput
statistic Network.Users[26] packetsReceivedStat:stats
field count 700
field mean 0.052857142857143
field stddev 0.98562216519517
field min 0
field max 24
field sum 37
field sqrsum 681
attr "" ""
attr recordingmode stats
attr source packetsReceived
attr title "Packets received per timeslot"
statistic Network.Users[26] packetDelayStat:stats
field count 37
field mean 20.448343700698
field stddev 30.899422998587
field min 0.060880692219
field max 67.48185341004
field sum 756.58871692583
field sqrsum 49842.862423011
attr "" ""
attr recordingmode stats
attr source packetDelay
attr title "Packet delay"
par Network.Users[27] typename "\"pecsn_project.User\""
par Network.Users[27] CQIdistribution "\"binomial\""
statistic Network.Users[27] throughputStat:stats
field count 700
field mean 0.92857142857143
field stddev 15.474397544275
field min 0
field max 369
field sum 650
field sqrsum 167984
attr "" ""
attr recordingmode stats
attr source throughput
attr title Throughput
statistic Network.Users[27] packetsReceivedStat:stats
field count 700
field mean 0.10571428571429
field stddev 1.7789812160834
field min 0
field max 43
field sum 74
field sqrsum 2220
attr "" ""
attr recordingmode stats
attr source packetsReceived
attr title "Packets received per timeslot"
statistic Network.Users[27] packetDelayStat:stats
field count 74
field mean 49.547445580009
field stddev 29.715554556649
field min 0.671747511
field max 68.136735184218
field sum 3666.5109729207
field sqrsum 246126.28822976
attr "" ""
attr recordingmode stats
attr source packetDelay
attr title "Packet delay"
par Network.Users[28] typename "\"pecsn_project.User\""
par Network.Users[28] CQIdistribution "\"binomial\""
statistic Network.Users[28] throughputStat:stats
field count 700
field mean 0
field stddev 0
field min 0
field max 0
field sum 0
field sqrsum 0
attr "" ""
attr recordingmode stats
attr source throughput
attr title Throughput
statistic Network.Users[28] packetsReceivedStat:stats
field count 700
field mean 0
field stddev 0
field min 0
field max 0
field sum 0
field sqrsum 0
attr "" ""
attr recordingmode stats
attr source packetsReceived
attr title "Packets received per timeslot"
statistic Network.Users[28] packetDelayStat:stats
field count 0
field mean nan
field stddev nan
field min nan
field max nan
field sum 0
field sqrsum 0
attr "" ""
attr recordingmode stats
attr source packetDelay
attr title "Packet delay"
par Network.Users[29] typename "\"pecsn_project.User\""
par Network.Users[29] CQIdistribution "\"binomial\""
statistic Network.Users[29] throughputStat:stats
field count 700
field mean 0.12285714285714
field stddev 2.8644718997147
field min 0
field max 75
field sum 86
field sqrsum 5746
attr "" ""
attr recordingmode stats
attr source throughput
attr title Throughput
statistic Network.Users[29] packetsReceivedStat:stats
field count 700
field mean 0.015714285714286
field stddev 0.37979578666269
field min 0
field max 10
field sum 11
field sqrsum 101
attr "" ""
attr recordingmode stats
attr source packetsReceived
attr title "Packets received per timeslot"
statistic Network.Users[29] packetDelayStat:stats
field count 11
field mean 68.966002684739
field stddev 0.13562928442881
field min 68.734340243531
field max 69.102165167473
field sum 758.62602953213
field sqrsum 52319.588742453
attr "" ""
attr recordingmode stats
attr source packetDelay
attr title "Packet delay"
par Network.Users[30] typename "\"pecsn_project.User\""
par Network.Users[30] CQIdistribution "\"binomial\""
statistic Network.Users[30] throughputStat:stats
field count 700
field mean 0.25
field stddev 5.8411555973494
field min 0
field max 153
field sum 175
field sqrsum 23893
attr "" ""
attr recordingmode stats
attr source throughput
attr title Throughput
statistic Network.Users[30] packetsReceivedStat:stats
field count 700
field mean 0.035714285714286
field stddev 0.8077832600504
field min 0
field max 21
field sum 25
field sqrsum 457
attr "" ""
attr recordingmode stats
attr source packetsReceived
attr title "Packets received per timeslot"
statistic Network.Users[30] packetDelayStat:stats
field count 25
field mean 0.68219898717516
field stddev 0.43498275082861
field min 0.01211588377
field max 1.375483325224
field sum 17.054974679379
field sqrsum 16.175926297013
attr "" ""
attr recordingmode stats
attr source packetDelay
attr title "Packet delay"
par Network.Users[31] typename "\"pecsn_project.User\""
par Network.Users[31] CQIdistribution "\"binomial\""
statistic Network.Users[31] throughputStat:stats
field count 700
field mean 0.15857142857143
field stddev 2.7653586126745
field min 0
field max 61
field sum 111
field sqrsum 5363
attr "" ""
attr recordingmode stats
attr source throughput
attr title Throughput
statistic Network.Users[31] packetsReceivedStat:stats
field count 700
field mean 0.018571428571429
field stddev 0.32703324901854
field min 0
field max 7
field sum 13
field sqrsum 75
attr "" ""
attr recordingmode stats
attr source packetsReceived
attr title "Packets received per timeslot"
statistic Network.Users[31] packetDelayStat:stats
field count 13
field mean 42.831347331037
field stddev 34.204293500174
field min 1.21611934303
field max 68.95662051655
field sum 556.80751530348
field sqrsum 37888.020410648
attr "" ""
attr recordingmode stats
attr source packetDelay
attr title "Packet delay"
par Network.Users[32] typename "\"pecsn_project.User\""
par Network.Users[32] CQIdistribution "\"binomial\""
statistic Network.Users[32] throughputStat:stats
field count 700
field mean 0.45142857142857
field stddev 7.4044556600401
field min 0
field max 164
field sum 316
field sqrsum 38466
attr "" ""
attr recordingmode stats
attr source throughput
attr title Throughput
statistic Network.Users[32] packetsReceivedStat:stats
field count 700
field mean 0.055714285714286
field stddev 0.92866229177034
field min 0
field max 21
field sum 39
field sqrsum 605
attr "" ""
attr recordingmode stats
attr source packetsReceived
attr title "Packets received per timeslot"
statistic Network.Users[32] packetDelayStat:stats
field count 39
field mean 68.459897559656
field stddev 0.49382437419493
field min 67.516113546558
field max 69.184891746285
field sum 2669.9360048266
field sqrsum 182792.81215674
attr "" ""
attr recordingmode stats
attr source packetDelay
attr title "Packet delay"
par Network.Users[33] typename "\"pecsn_project.User\""
par Network.Users[33] CQIdistribution "\"binomial\""
statistic Network.Users[33] throughputStat:stats
field count 700
field mean 0.031428571428571
field stddev 0.8315218406203
field min 0
field max 22
field sum 22
field sqrsum 484
attr "" ""
attr recordingmode stats
attr source throughput
attr title Throughput
statistic Network.Users[33] packetsReceivedStat:stats
field count 700
field mean 0.0042857142857143
field stddev 0.11338934190277
field min 0
field max 3
field sum 3
field sqrsum 9
attr "" ""
attr recordingmode stats
attr source packetsReceived
attr title "Packets received per timeslot"
statistic Network.Users[33] packetDelayStat:stats
field count 3
field mean 69.40148567685
field stddev 0.047068928188047
field min 69.347506407443
field max 69.433967383867
field sum 208.20445703055
field sqrsum 14449.70307343
attr "" ""
attr recordingmode stats
attr source packetDelay
attr title "Packet delay"
par Network.Users[34] typename "\"pecsn_project.User\""
par Network.Users[34] CQIdistribution "\"binomial\""
statistic Network.Users[34] throughputStat:stats
field count 700
field mean 0.60285714285714
field stddev 11.43342953152
field min 0
field max 269
field sum 422
field sqrsum 91630
attr "" ""
attr recordingmode stats
attr source throughput
attr title Throughput
statistic Network.Users[34] packetsReceivedStat:stats
field count 700
field mean 0.068571428571429
field stddev 1.3029671055527
field min 0
field max 31
field sum 48
field sqrsum 1190
attr "" ""
attr recordingmode stats
attr source packetsReceived
attr title "Packets received per timeslot"
statistic Network.Users[34] packetDelayStat:stats
field count 48
field mean 0.7978537848119
field stddev 0.47097686859278
field min 0.030541708098
field max 1.530026083731
field sum 38.296981670971
field sqrsum 40.980894678281
attr "" ""
attr recordingmode stats
attr source packetDelay
attr title "Packet delay"
par Network.Users[35] typename "\"pecsn_project.User\""
par Network.Users[35] CQIdistribution "\"binomial\""
statistic Network.Users[35] throughputStat:stats
field count 700
field mean 0.058571428571429
field stddev 1.5496543393378
field min 0
field max 41
field sum 41
field sqrsum 1681
attr "" ""
attr recordingmode stats
attr source throughput
attr title Throughput
statistic Network.Users[35] packetsReceivedStat:stats
field count 700
field mean 0.012857142857143
field stddev 0.3401680257083
field min 0
field max 9
field sum 9
field sqrsum 81
attr "" ""
attr recordingmode stats
attr source packetsReceived
attr title "Packets received per timeslot"
statistic Network.Users[35] packetDelayStat:stats
field count 9
field mean 1.5858965998872
field stddev 0.096270801176992
field min 1.417540008429
field max 1.698909955665
field sum 14.273069398985
field sqrsum 22.709756767079
attr "" ""
attr recordingmode stats
attr source packetDelay
attr title "Packet delay"
par Network.Users[36] typename "\"pecsn_project.User\""
par Network.Users[36] CQIdistribution "\"binomial\""
statistic Network.Users[36] throughputStat:stats
field count 700
field mean 0.26428571428571
field stddev 6.1194718584769
field min 0
field max 160
field sum 185
field sqrsum 26225
attr "" ""
attr recordingmode stats
attr source throughput
attr title Throughput
statistic Network.Users[36] packetsReceivedStat:stats
field count 700
field mean 0.04
field stddev 0.9194138830864
field min 0
field max 24
field sum 28
field sqrsum 592
attr "" ""
attr recordingmode stats
attr source packetsReceived
attr title "Packets received per timeslot"
statistic Network.Users[36] packetDelayStat:stats
field count 28
field mean 69.061226877186
field stddev 0.27362090054854
field min 68.657953928364
field max 69.467645588114
field sum 1933.7143525612
field sqrsum 133546.70706462
attr "" ""
attr recordingmode stats
attr source packetDelay
attr title "Packet delay"
par Network.Users[37] typename "\"pecsn_project.User\""
par Network.Users[37] CQIdistribution "\"binomial\""
statistic Network.Users[37] throughputStat:stats
field count 700
field mean 0
field stddev 0
field min 0
field max 0
field sum 0
field sqrsum 0
attr "" ""
attr recordingmode stats
attr source throughput
attr title Throughput
statistic Network.Users[37] packetsReceivedStat:stats
field count 700
field mean 0
field stddev 0
field min 0
field max 0
field sum 0
field sqrsum 0
attr "" ""
attr recordingmode stats
attr source packetsReceived
attr title "Packets received per timeslot"
statistic Network.Users[37] packetDelayStat:stats
field count 0
field mean nan
field stddev nan
field min nan
field max nan
field sum 0
field sqrsum 0
attr "" ""
attr recordingmode stats
attr source packetDelay
attr title "Packet delay"
par Network.Users[38] typename "\"pecsn_project.User\""
par Network.Users[38] CQIdistribution "\"binomial\""
statistic Network.Users[38] throughputStat:stats
field count 700
field mean 0.45714285714286
field stddev 7.2285115702865
field min 0
field max 159
field sum 320
field sqrsum 36670
attr "" ""
attr recordingmode stats
attr source throughput
attr title Throughput
statistic Network.Users[38] packetsReceivedStat:stats
field count 700
field mean 0.067142857142857
field stddev 1.0301910914272
field min 0
field max 22
field sum 47
field sqrsum 745
attr "" ""
attr recordingmode stats
attr source packetsReceived
attr title "Packets received per timeslot"
statistic Network.Users[38] packetDelayStat:stats
field count 47
field mean 0.87142581353606
field stddev 0.4788452587816
field min 0.037274898948
field max 1.657329115662
field sum 40.957013236195
field sqrsum 46.238466544809
attr "" ""
attr recordingmode stats
attr source packetDelay
attr title "Packet delay"
par Network.Users[39] typename "\"pecsn_project.User\""
par Network.Users[39] CQIdistribution "\"binomial\""
statistic Network.Users[39] throughputStat:stats
field count 700
field mean 0.091428571428571
field stddev 2.4189726272591
field min 0
field max 64
field sum 64
field sqrsum 4096
attr "" ""
attr recordingmode stats
attr source throughput
attr title Throughput
statistic Network.Users[39] packetsReceivedStat:stats
field count 700
field mean 0.011428571428571
field stddev 0.30237157840738
field min 0
field max 8
field sum 8
field sqrsum 64
attr "" ""
attr recordingmode stats
attr source packetsReceived
attr title "Packets received per timeslot"
statistic Network.Users[39] packetDelayStat:stats
field count 8
field mean 1.8112439056509
field stddev 0.091296855454428
field min 1.68991738243
field max 1.952954189416
field sum 14.489951245207
field sqrsum 26.303181696771
attr "" ""
attr recordingmode stats
attr source packetDelay
attr title "Packet delay"
par Network.Users[40] typename "\"pecsn_project.User\""
par Network.Users[40] CQIdistribution "\"binomial\""
statistic Network.Users[40] throughputStat:stats
field count 700
field mean 0.81
field stddev 9.8193795421236
field min 0
field max 163
field sum 567
field sqrsum 67857
attr "" ""
attr recordingmode stats
attr source throughput
attr title Throughput
statistic Network.Users[40] packetsReceivedStat:stats
field count 700
field mean 0.10142857142857
field stddev 1.1681261490883
field min 0
field max 17
field sum 71
field sqrsum 961
attr "" ""
attr recordingmode stats
attr source packetsReceived
attr title "Packets received per timeslot"
statistic Network.Users[40] packetDelayStat:stats
field count 71
field mean 51.952676422895
field stddev 28.418221161926
field min 1.29789903604
field max 68.748201345377
field sum 3688.6400260255
field sqrsum 248166.39229321
attr "" ""
attr recordingmode stats
attr source packetDelay
attr title "Packet delay"
par Network.Users[41] typename "\"pecsn_project.User\""
par Network.Users[41] CQIdistribution "\"binomial\""
statistic Network.Users[41] throughputStat:stats
field count 700
field mean 0.054285714285714
field stddev 1.4362649974351
field min 0
field max 38
field sum 38
field sqrsum 1444
attr "" ""
attr recordingmode stats
attr source throughput
attr title Throughput
statistic Network.Users[41] packetsReceivedStat:stats
field count 700
field mean 0.0057142857142857
field stddev 0.15118578920369
field min 0
field max 4
field sum 4
field sqrsum 16
attr "" ""
attr recordingmode stats
attr source packetsReceived
attr title "Packets received per timeslot"
statistic Network.Users[41] packetDelayStat:stats
field count 4
field mean 69.942673051893
field stddev 0.032361594619514
field min 69.905393288203
field max 69.978388823337
field sum 279.77069220757
field sqrsum 19567.913196395
attr "" ""
attr recordingmode stats
attr source packetDelay
attr title "Packet delay"
par Network.Users[42] typename "\"pecsn_project.User\""
par Network.Users[42] CQIdistribution "\"binomial\""
statistic Network.Users[42] throughputStat:stats
field count 700
field mean 0.23
field stddev 5.614712178458
field min 0
field max 148
field sum 161
field sqrsum 22073
attr "" ""
attr recordingmode stats
attr source throughput
attr title Throughput
statistic Network.Users[42] packetsReceivedStat:stats
field count 700
field mean 0.027142857142857
field stddev 0.68133115281157
field min 0
field max 18
field sum 19
field sqrsum 325
attr "" ""
attr recordingmode stats
attr source packetsReceived
attr title "Packets received per timeslot"
statistic Network.Users[42] packetDelayStat:stats
field count 19
field mean 1.8117363099304
field stddev 0.21373011076354
field min 1.462452272295
field max 2.148742899216
field sum 34.422989888677
field sqrsum 63.187630762128
attr "" ""
attr recordingmode stats
attr source packetDelay
attr title "Packet delay"
par Network.Users[43] typename "\"pecsn_project.User\""
par Network.Users[43] CQIdistribution "\"binomial\""
statistic Network.Users[43] throughputStat:stats
field count 700
field mean 0
field stddev 0
field min 0
field max 0
field sum 0
field sqrsum 0
attr "" ""
attr recordingmode stats
attr source throughput
attr title Throughput
statistic Network.Users[43] packetsReceivedStat:stats
field count 700
field mean 0
field stddev 0
field min 0
field max 0
field sum 0
field sqrsum 0
attr "" ""
attr recordingmode stats
attr source packetsReceived
attr title "Packets received per timeslot"
statistic Network.Users[43] packetDelayStat:stats
field count 0
field mean nan
field stddev nan
field min nan
field max nan
field sum 0
field sqrsum 0
attr "" ""
attr recordingmode stats
attr source packetDelay
attr title "Packet delay"
par Network.Users[44] typename "\"pecsn_project.User\""
par Network.Users[44] CQIdistribution "\"binomial\""
statistic Network.Users[44] throughputStat:stats
field count 700
field mean 0.82428571428571
field stddev 14.921031385285
field min 0
field max 373
field sum 577
field sqrsum 156099
attr "" ""
attr recordingmode stats
attr source throughput
attr title Throughput
statistic Network.Users[44] packetsReceivedStat:stats
field count 700
field mean 0.10428571428571
field stddev 1.8818412219502
field min 0
field max 47
field sum 73
field sqrsum 2483
attr "" ""
attr recordingmode stats
attr source packetsReceived
attr title "Packets received per timeslot"
statistic Network.Users[44] packetDelayStat:stats
field count 73
field mean 1.089997714422
field stddev 0.67874679170361
field min 0.021920764411
field max 2.155635976091
field sum 79.569833152809
field sqrsum 119.90113519536
attr "" ""
attr recordingmode stats
attr source packetDelay
attr title "Packet delay"
par Network.Users[45] typename "\"pecsn_project.User\""
par Network.Users[45] CQIdistribution "\"binomial\""
statistic Network.Users[45] throughputStat:stats
field count 700
field mean 0.64428571428571
field stddev 15.011794463777
field min 0
field max 393
field sum 451
field sqrsum 157813
attr "" ""
attr recordingmode stats
attr source throughput
attr title Throughput
statistic Network.Users[45] packetsReceivedStat:stats
field count 700
field mean 0.087142857142857
field stddev 2.0577097028825
field min 0
field max 54
field sum 61
field sqrsum 2965
attr "" ""
attr recordingmode stats
attr source packetsReceived
attr title "Packets received per timeslot"
statistic Network.Users[45] packetDelayStat:stats
field count 61
field mean 1.2191257568908
field stddev 0.77094110112436
field min 0.029061254282
field max 2.488603508458
field sum 74.366671170336
field sqrsum 126.32333516215
attr "" ""
attr recordingmode stats
attr source packetDelay
attr title "Packet delay"
par Network.Users[46] typename "\"pecsn_project.User\""
par Network.Users[46] CQIdistribution "\"binomial\""
statistic Network.Users[46] throughputStat:stats
field count 700
field mean 0.59571428571429
field stddev 11.498621373038
field min 0
field max 262
field sum 417
field sqrsum 92669
attr "" ""
attr recordingmode stats
attr source throughput
attr title Throughput
statistic Network.Users[46] packetsReceivedStat:stats
field count 700
field mean 0.078571428571429
field stddev 1.5226842552215
field min 0
field max 35
field sum 55
field sqrsum 1625
attr "" ""
attr recordingmode stats
attr source packetsReceived
attr title "Packets received per timeslot"
statistic Network.Users[46] packetDelayStat:stats
field count 55
field mean 1.1587692054747
field stddev 0.74268680376952
field min 0.092792203174
field max 2.598028270358
field sum 63.732306301111
field sqrsum 103.63655311425
attr "" ""
attr recordingmode stats
attr source packetDelay
attr title "Packet delay"
par Network.Users[47] typename "\"pecsn_project.User\""
par Network.Users[47] CQIdistribution "\"binomial\""
statistic Network.Users[47] throughputStat:stats
field count 700
field mean 0.12
field stddev 3.0634492047434
field min 0
field max 81
field sum 84
field sqrsum 6570
attr "" ""
attr recordingmode stats
attr source throughput
attr title Throughput
statistic Network.Users[47] packetsReceivedStat:stats
field count 700
field mean 0.018571428571429
field stddev 0.4550756063338
field min 0
field max 12
field sum 13
field sqrsum 145
attr "" ""
attr recordingmode stats
attr source packetsReceived
attr title "Packets received per timeslot"
statistic Network.Users[47] packetDelayStat:stats
field count 13
field mean 2.4674009851871
field stddev 0.13762173123365
field min 2.234958313778
field max 2.655579949209
field sum 32.076212807432
field sqrsum 79.372155973021
attr "" ""
attr recordingmode stats
attr source packetDelay
attr title "Packet delay"
par Network.Users[48] typename "\"pecsn_project.User\""
par Network.Users[48] CQIdistribution "\"binomial\""
statistic Network.Users[48] throughputStat:stats
field count 700
field mean 0.0028571428571429
field stddev 0.075592894601845
field min 0
field max 2
field sum 2
field sqrsum 4
attr "" ""
attr recordingmode stats
attr source throughput
attr title Throughput
statistic Network.Users[48] packetsReceivedStat:stats
field count 700
field mean 0.0014285714285714
field stddev 0.037796447300923
field min 0
field max 1
field sum 1
field sqrsum 1
attr "" ""
attr recordingmode stats
attr source packetsReceived
attr title "Packets received per timeslot"
statistic Network.Users[48] packetDelayStat:stats
field count 1
field mean 2.775993457628
field stddev nan
field min 2.775993457628
field max 2.775993457628
field sum 2.775993457628
field sqrsum 7.7061396767935
attr "" ""
attr recordingmode stats
attr source packetDelay
attr title "Packet delay"
par Network.Users[49] typename "\"pecsn_project.User\""
par Network.Users[49] CQIdistribution "\"binomial\""
statistic Network.Users[49] throughputStat:stats
field count 700
field mean 0
field stddev 0
field min 0
field max 0
field sum 0
field sqrsum 0
attr "" ""
attr recordingmode stats
attr source throughput
attr title Throughput
statistic Network.Users[49] packetsReceivedStat:stats
field count 700
field mean 0
field stddev 0
field min 0
field max 0
field sum 0
field sqrsum 0
attr "" ""
attr recordingmode stats
attr source packetsReceived
attr title "Packets received per timeslot"
statistic Network.Users[49] packetDelayStat:stats
field count 0
field mean nan
field stddev nan
field min nan
field max nan
field sum 0
field sqrsum 0
attr "" ""
attr recordingmode stats
attr source packetDelay
attr title "Packet delay"
par Network.Users[50] typename "\"pecsn_project.User\""
par Network.Users[50] CQIdistribution "\"binomial\""
statistic Network.Users[50] throughputStat:stats
field count 700
field mean 0.81
field stddev 21.242173682921
field min 0
field max 562
field sum 567
field sqrsum 315869
attr "" ""
attr recordingmode stats
attr source throughput
attr title Throughput
statistic Network.Users[50] packetsReceivedStat:stats
field count 700
field mean 0.10142857142857
field stddev 2.645967204709
field min 0
field max 70
field sum 71
field sqrsum 4901
attr "" ""
attr recordingmode stats
attr source packetsReceived
attr title "Packets received per timeslot"
statistic Network.Users[50] packetDelayStat:stats
field count 71
field mean 1.3049901420431
field stddev 0.86234126187577
field min 0.031227585641
field max 2.629480698406
field sum 92.654300085058
field sqrsum 172.96721986425
attr "" ""
attr recordingmode stats
attr source packetDelay
attr title "Packet delay"
par Network.Users[51] typename "\"pecsn_project.User\""
par Network.Users[51] CQIdistribution "\"binomial\""
statistic Network.Users[51] throughputStat:stats
field count 700
field mean 0.91857142857143
field stddev 19.356617074419
field min 0
field max 493
field sum 643
field sqrsum 262491
attr "" ""
attr recordingmode stats
attr source throughput
attr title Throughput
statistic Network.Users[51] packetsReceivedStat:stats
field count 700
field mean 0.12285714285714
field stddev 2.5506133475704
field min 0
field max 65
field sum 86
field sqrsum 4558
attr "" ""
attr recordingmode stats
attr source packetsReceived
attr title "Packets received per timeslot"
statistic Network.Users[51] packetDelayStat:stats
field count 86
field mean 1.5487431712694
field stddev 0.93045048427058
field min 0.002018670191
field max 2.884263438462
field sum 133.19191272917
field sqrsum 279.86780412036
attr "" ""
attr recordingmode stats
attr source packetDelay
attr title "Packet delay"
par Network.Users[52] typename "\"pecsn_project.User\""
par Network.Users[52] CQIdistribution "\"binomial\""
statistic Network.Users[52] throughputStat:stats
field count 700
field mean 0.93714285714286
field stddev 17.60321023061
field min 0
field max 360
field sum 656
field sqrsum 217216
attr "" ""
attr recordingmode stats
attr source throughput
attr title Throughput
statistic Network.Users[52] packetsReceivedStat:stats
field count 700
field mean 0.11857142857143
field stddev 2.2207109957834
field min 0
field max 44
field sum 83
field sqrsum 3457
attr "" ""
attr recordingmode stats
attr source packetsReceived
attr title "Packets received per timeslot"
statistic Network.Users[52] packetDelayStat:stats
field count 83
field mean 1.5625245840439
field stddev 0.83907234633702
field min 0.084122028556
field max 3.089756644784
field sum 129.68954047564
field sqrsum 260.37457228231
attr "" ""
attr recordingmode stats
attr source packetDelay
attr title "Packet delay"
par Network.Users[53] typename "\"pecsn_project.User\""
par Network.Users[53] CQIdistribution "\"binomial\""
statistic Network.Users[53] throughputStat:stats
field count 700
field mean 0.89714285714286
field stddev 18.176947555633
field min 0
field max 445
field sum 628
field sqrsum 231514
attr "" ""
attr recordingmode stats
attr source throughput
attr title Throughput
statistic Network.Users[53] packetsReceivedStat:stats
field count 700
field mean 0.12
field stddev 2.4412759627253
field min 0
field max 60
field sum 84
field sqrsum 4176
attr "" ""
attr recordingmode stats
attr source packetsReceived
attr title "Packets received per timeslot"
statistic Network.Users[53] packetDelayStat:stats
field count 84
field mean 1.5464507201993
field stddev 0.93095499118571
field min 0.047035646466
field max 3.180744324314
field sum 129.90186049674
field sqrsum 272.82103295634
attr "" ""
attr recordingmode stats
attr source packetDelay
attr title "Packet delay"
par Network.Users[54] typename "\"pecsn_project.User\""
par Network.Users[54] CQIdistribution "\"binomial\""
statistic Network.Users[54] throughputStat:stats
field count 700
field mean 1.0128571428571
field stddev 15.785801749972
field min 0
field max 283
field sum 709
field sqrsum 174903
attr "" ""
attr recordingmode stats
attr source throughput
attr title Throughput
statistic Network.Users[54] packetsReceivedStat:stats
field count 700
field mean 0.12714285714286
field stddev 2.0176915256256
field min 0
field max 38
field sum 89
field sqrsum 2857
attr "" ""
attr recordingmode stats
attr source packetsReceived
attr title "Packets received per timeslot"
statistic Network.Users[54] packetDelayStat:stats
field count 89
field mean 1.5164717362877
field stddev 0.98163786407879
field min 0.009504443472
field max 3.352185553446
field sum 134.96598452961
field sqrsum 289.4700357644
attr "" ""
attr recordingmode stats
attr source packetDelay
attr title "Packet delay"
par Network.Users[55] typename "\"pecsn_project.User\""
par Network.Users[55] CQIdistribution "\"binomial\""
statistic Network.Users[55] throughputStat:stats
field count 700
field mean 1.0414285714286
field stddev 15.65890892021
field min 0
field max 284
field sum 729
field sqrsum 172155
attr "" ""
attr recordingmode stats
attr source throughput
attr title Throughput
statistic Network.Users[55] packetsReceivedStat:stats
field count 700
field mean 0.12714285714286
field stddev 1.8781494429527
field min 0
field max 36
field sum 89
field sqrsum 2477
attr "" ""
attr recordingmode stats
attr source packetsReceived
attr title "Packets received per timeslot"
statistic Network.Users[55] packetDelayStat:stats
field count 89
field mean 1.760601850401
field stddev 1.1034547316385
field min 0.017343205482
field max 3.5888391937
field sum 156.69356468569
field sqrsum 383.02486627178
attr "" ""
attr recordingmode stats
attr source packetDelay
attr title "Packet delay"
par Network.Users[56] typename "\"pecsn_project.User\""
par Network.Users[56] CQIdistribution "\"binomial\""
statistic Network.Users[56] throughputStat:stats
field count 700
field mean 0.96571428571429
field stddev 13.90562802988
field min 0
field max 280
field sum 676
field sqrsum 135816
attr "" ""
attr recordingmode stats
attr source throughput
attr title Throughput
statistic Network.Users[56] packetsReceivedStat:stats
field count 700
field mean 0.12714285714286
field stddev 1.8582393122276
field min 0
field max 38
field sum 89
field sqrsum 2425
attr "" ""
attr recordingmode stats
attr source packetsReceived
attr title "Packets received per timeslot"
statistic Network.Users[56] packetDelayStat:stats
field count 89
field mean 1.8596392317852
field stddev 1.0907178955704
field min 0.048067904828
field max 3.881334426035
field sum 165.50789162888
field sqrsum 412.47553488228
attr "" ""
attr recordingmode stats
attr source packetDelay
attr title "Packet delay"
par Network.Users[57] typename "\"pecsn_project.User\""
par Network.Users[57] CQIdistribution "\"binomial\""
statistic Network.Users[57] throughputStat:stats
field count 700
field mean 1.4914285714286
field stddev 23.947276033608
field min 0
field max 493
field sum 1044
field sqrsum 402414
attr "" ""
attr recordingmode stats
attr source throughput
attr title Throughput
statistic Network.Users[57] packetsReceivedStat:stats
field count 700
field mean 0.17142857142857
field stddev 2.735196485824
field min 0
field max 55
field sum 120
field sqrsum 5250
attr "" ""
attr recordingmode stats
attr source packetsReceived
attr title "Packets received per timeslot"
statistic Network.Users[57] packetDelayStat:stats
field count 120
field mean 2.0447732610108
field stddev 1.2520983522397
field min 0.038791805956
field max 4.192264185924
field sum 245.37279132129
field sqrsum 688.29400643142
attr "" ""
attr recordingmode stats
attr source packetDelay
attr title "Packet delay"
par Network.Users[58] typename "\"pecsn_project.User\""
par Network.Users[58] CQIdistribution "\"binomial\""
statistic Network.Users[58] throughputStat:stats
field count 700
field mean 1.2185714285714
field stddev 24.404658393803
field min 0
field max 621
field sum 853
field sqrsum 417355
attr "" ""
attr recordingmode stats
attr source throughput
attr title Throughput
statistic Network.Users[58] packetsReceivedStat:stats
field count 700
field mean 0.15285714285714
field stddev 3.1163981551913
field min 0
field max 80
field sum 107
field sqrsum 6805
attr "" ""
attr recordingmode stats
attr source packetsReceived
attr title "Packets received per timeslot"
statistic Network.Users[58] packetDelayStat:stats
field count 107
field mean 2.0774049373397
field stddev 1.3229081738079
field min 0.018503409255
field max 4.371333002346
field sum 222.28232829535
field sqrsum 647.27952613486
attr "" ""
attr recordingmode stats
attr source packetDelay
attr title "Packet delay"
par Network.Users[59] typename "\"pecsn_project.User\""
par Network.Users[59] CQIdistribution "\"binomial\""
statistic Network.Users[59] throughputStat:stats
field count 700
field mean 1.5057142857143
field stddev 28.214967191101
field min 0
field max 563
field sum 1054
field sqrsum 558050
attr "" ""
attr recordingmode stats
attr source throughput
attr title Throughput
statistic Network.Users[59] packetsReceivedStat:stats
field count 700
field mean 0.19428571428571
field stddev 3.6337271530325
field min 0
field max 70
field sum 136
field sqrsum 9256
attr "" ""
attr recordingmode stats
attr source packetsReceived
attr title "Packets received per timeslot"
statistic Network.Users[59] packetDelayStat:stats
field count 136
field mean 2.2917306786286
field stddev 1.2857092441726
field min 0.005153089045
field max 4.593168062276
field sum 311.67537229349
field sqrsum 937.43752763238
attr "" ""
attr recordingmode stats
attr source packetDelay
attr title "Packet delay"
par Network.Users[60] typename "\"pecsn_project.User\""
par Network.Users[60] CQIdistribution "\"binomial\""
statistic Network.Users[60] throughputStat:stats
field count 700
field mean 1.2014285714286
field stddev 24.146151281405
field min 0
field max 616
field sum 841
field sqrsum 408553
attr "" ""
attr recordingmode stats
attr source throughput
attr title Throughput
statistic Network.Users[60] packetsReceivedStat:stats
field count 700
field mean 0.13714285714286
field stddev 2.8073157763199
field min 0
field max 72
field sum 96
field sqrsum 5522
attr "" ""
attr recordingmode stats
attr source packetsReceived
attr title "Packets received per timeslot"
statistic Network.Users[60] packetDelayStat:stats
field count 96
field mean 2.665804943787
field stddev 1.1885153445024
field min 0.614455576681
field max 4.681294945336
field sum 255.91727460355
field sqrsum 816.4195646298
attr "" ""
attr recordingmode stats
attr source packetDelay
attr title "Packet delay"
par Network.Users[61] typename "\"pecsn_project.User\""
par Network.Users[61] CQIdistribution "\"binomial\""
statistic Network.Users[61] throughputStat:stats
field count 700
field mean 0.14285714285714
field stddev 2.8973161785035
field min 0
field max 71
field sum 100
field sqrsum 5882
attr "" ""
attr recordingmode stats
attr source throughput
attr title Throughput
statistic Network.Users[61] packetsReceivedStat:stats
field count 700
field mean 0.021428571428571
field stddev 0.44219275994836
field min 0
field max 11
field sum 15
field sqrsum 137
attr "" ""
attr recordingmode stats
attr source packetsReceived
attr title "Packets received per timeslot"
statistic Network.Users[61] packetDelayStat:stats
field count 15
field mean 4.6357617375977
field stddev 0.088226824875285
field min 4.497753950602
field max 4.84541697414
field sum 69.536426063966
field sqrsum 322.46327893341
attr "" ""
attr recordingmode stats
attr source packetDelay
attr title "Packet delay"
par Network.Users[62] typename "\"pecsn_project.User\""
par Network.Users[62] CQIdistribution "\"binomial\""
statistic Network.Users[62] throughputStat:stats
field count 700
field mean 1.3842857142857
field stddev 25.874784515779
field min 0
field max 563
field sum 969
field sqrsum 469325
attr "" ""
attr recordingmode stats
attr source throughput
attr title Throughput
statistic Network.Users[62] packetsReceivedStat:stats
field count 700
field mean 0.16714285714286
field stddev 3.1138263554407
field min 0
field max 67
field sum 117
field sqrsum 6797
attr "" ""
attr recordingmode stats
attr source packetsReceived
attr title "Packets received per timeslot"
statistic Network.Users[62] packetDelayStat:stats
field count 117
field mean 2.4367548391405
field stddev 1.4401910873709
field min 0.041566967755
field max 4.825291211437
field sum 285.10031617944
field sqrsum 935.32101779524
attr "" ""
attr recordingmode stats
attr source packetDelay
attr title "Packet delay"
par Network.Users[63] typename "\"pecsn_project.User\""
par Network.Users[63] CQIdistribution "\"binomial\""
statistic Network.Users[63] throughputStat:stats
field count 700
field mean 1.5257142857143
field stddev 25.52601234733
field min 0
field max 616
field sum 1068
field sqrsum 457082
attr "" ""
attr recordingmode stats
attr source throughput
attr title Throughput
statistic Network.Users[63] packetsReceivedStat:stats
field count 700
field mean 0.17428571428571
field stddev 2.9113603010227
field min 0
field max 70
field sum 122
field sqrsum 5946
attr "" ""
attr recordingmode stats
attr source packetsReceived
attr title "Packets received per timeslot"
statistic Network.Users[63] packetDelayStat:stats
field count 122
field mean 2.7349701924111
field stddev 1.506533658522
field min 0.01450520745
field max 5.140562345411
field sum 333.66636347415
field sqrsum 1187.1944416874
attr "" ""
attr recordingmode stats
attr source packetDelay
attr title "Packet delay"
par Network.Users[64] typename "\"pecsn_project.User\""
par Network.Users[64] CQIdistribution "\"binomial\""
statistic Network.Users[64] throughputStat:stats
field count 700
field mean 1.8342857142857
field stddev 25.528877226593
field min 0
field max 474
field sum 1284
field sqrsum 457910
attr "" ""
attr recordingmode stats
attr source throughput
attr title Throughput
statistic Network.Users[64] packetsReceivedStat:stats
field count 700
field mean 0.21285714285714
field stddev 2.9388825174997
field min 0
field max 54
field sum 149
field sqrsum 6069
attr "" ""
attr recordingmode stats
attr source packetsReceived
attr title "Packets received per timeslot"
statistic Network.Users[64] packetDelayStat:stats
field count 149
field mean 2.9122290989436
field stddev 1.5965165876441
field min 0.006242789224
field max 5.459040779769
field sum 433.92213574259
field sqrsum 1640.9127221495
attr "" ""
attr recordingmode stats
attr source packetDelay
attr title "Packet delay"
par Network.Users[65] typename "\"pecsn_project.User\""
par Network.Users[65] CQIdistribution "\"binomial\""
statistic Network.Users[65] throughputStat:stats
field count 700
field mean 1.9685714285714
field stddev 31.582245165398
field min 0
field max 622
field sum 1378
field sqrsum 699922
attr "" ""
attr recordingmode stats
attr source throughput
attr title Throughput
statistic Network.Users[65] packetsReceivedStat:stats
field count 700
field mean 0.24
field stddev 3.8165515597588
field min 0
field max 74
field sum 168
field sqrsum 10222
attr "" ""
attr recordingmode stats
attr source packetsReceived
attr title "Packets received per timeslot"
statistic Network.Users[65] packetDelayStat:stats
field count 168
field mean 2.8819414496417
field stddev 1.7926272314674
field min 0.020800205254
field max 5.850917489535
field sum 484.1661635398
field sqrsum 1931.9951045161
attr "" ""
attr recordingmode stats
attr source packetDelay
attr title "Packet delay"
par Network.Users[66] typename "\"pecsn_project.User\""
par Network.Users[66] CQIdistribution "\"binomial\""
statistic Network.Users[66] throughputStat:stats
field count 700
field mean 1.19
field stddev 20.825789077512
field min 0
field max 498
field sum 833
field sqrsum 304157
attr "" ""
attr recordingmode stats
attr source throughput
attr title Throughput
statistic Network.Users[66] packetsReceivedStat:stats
field count 700
field mean 0.13285714285714
field stddev 2.3342459749153
field min 0
field max 56
field sum 93
field sqrsum 3821
attr "" ""
attr recordingmode stats
attr source packetsReceived
attr title "Packets received per timeslot"
statistic Network.Users[66] packetDelayStat:stats
field count 93
field mean 4.2293261314603
field stddev 1.0126668054532
field min 2.537518593621
field max 6.071689665484
field sum 393.3273302258
field sqrsum 1757.8550093572
attr "" ""
attr recordingmode stats
attr source packetDelay
attr title "Packet delay"
par Network.Users[67] typename "\"pecsn_project.User\""
par Network.Users[67] CQIdistribution "\"binomial\""
statistic Network.Users[67] throughputStat:stats
field count 700
field mean 1.9457142857143
field stddev 37.113172954966
field min 0
field max 848
field sum 1362
field sqrsum 965444
attr "" ""
attr recordingmode stats
attr source throughput
attr title Throughput
statistic Network.Users[67] packetsReceivedStat:stats
field count 700
field mean 0.25571428571429
field stddev 4.8783817210032
field min 0
field max 111
field sum 179
field sqrsum 16681
attr "" ""
attr recordingmode stats
attr source packetsReceived
attr title "Packets received per timeslot"
statistic Network.Users[67] packetDelayStat:stats
field count 179
field mean 3.2407709637461
field stddev 1.7331788703475
field min 0.05407312998
field max 6.321399015386
field sum 580.09800251055
field sqrsum 2414.6605640615
attr "" ""
attr recordingmode stats
attr source packetDelay
attr title "Packet delay"
par Network.Users[68] typename "\"pecsn_project.User\""
par Network.Users[68] CQIdistribution "\"binomial\""
statistic Network.Users[68] throughputStat:stats
field count 700
field mean 2.0728571428571
field stddev 31.823306983429
field min 0
field max 621
field sum 1451
field sqrsum 710901
attr "" ""
attr recordingmode stats
attr source throughput
attr title Throughput
statistic Network.Users[68] packetsReceivedStat:stats
field count 700
field mean 0.26571428571429
field stddev 4.0172334665933
field min 0
field max 76
field sum 186
field sqrsum 11330
attr "" ""
attr recordingmode stats
attr source packetsReceived
attr title "Packets received per timeslot"
statistic Network.Users[68] packetDelayStat:stats
field count 186
field mean 3.198326241322
field stddev 1.9337055610653
field min 0.040230509704
field max 6.549682713295
field sum 594.8886808859
field sqrsum 2594.4032601684
attr "" ""
attr recordingmode stats
attr source packetDelay
attr title "Packet delay"
par Network.Users[69] typename "\"pecsn_project.User\""
par Network.Users[69] CQIdistribution "\"binomial\""
statistic Network.Users[69] throughputStat:stats
field count 700
field mean 1.4557142857143
field stddev 30.240372902466
field min 0
field max 756
field sum 1019
field sqrsum 640705
attr "" ""
attr recordingmode stats
attr source throughput
attr title Throughput
statistic Network.Users[69] packetsReceivedStat:stats
field count 700
field mean 0.18714285714286
field stddev 3.8603083270815
field min 0
field max 96
field sum 131
field sqrsum 10441
attr "" ""
attr recordingmode stats
attr source packetsReceived
attr title "Packets received per timeslot"
statistic Network.Users[69] packetDelayStat:stats
field count 131
field mean 4.138766228521
field stddev 1.7309662527069
field min 1.098133175191
field max 6.894207270453
field sum 542.17837593625
field sqrsum 2633.4612940007
attr "" ""
attr recordingmode stats
attr source packetDelay
attr title "Packet delay"
par Network.Users[70] typename "\"pecsn_project.User\""
par Network.Users[70] CQIdistribution "\"binomial\""
statistic Network.Users[70] throughputStat:stats
field count 700
field mean 1.9757142857143
field stddev 29.736241264717
field min 0
field max 492
field sum 1383
field sqrsum 620819
attr "" ""
attr recordingmode stats
attr source throughput
attr title Throughput
statistic Network.Users[70] packetsReceivedStat:stats
field count 700
field mean 0.24857142857143
field stddev 3.6703873510523
field min 0
field max 60
field sum 174
field sqrsum 9460
attr "" ""
attr recordingmode stats
attr source packetsReceived
attr title "Packets received per timeslot"
statistic Network.Users[70] packetDelayStat:stats
field count 174
field mean 3.8138897128046
field stddev 2.1061361884265
field min 0.018525787737
field max 7.01350650091
field sum 663.616810028
field sqrsum 3298.3563934566
attr "" ""
attr recordingmode stats
attr source packetDelay
attr title "Packet delay"
par Network.Users[71] typename "\"pecsn_project.User\""
par Network.Users[71] CQIdistribution "\"binomial\""
statistic Network.Users[71] throughputStat:stats
field count 700
field mean 2.4042857142857
field stddev 38.053546099328
field min 0
field max 718
field sum 1683
field sqrsum 1016249
attr "" ""
attr recordingmode stats
attr source throughput
attr title Throughput
statistic Network.Users[71] packetsReceivedStat:stats
field count 700
field mean 0.30714285714286
field stddev 4.8571826797757
field min 0
field max 86
field sum 215
field sqrsum 16557
attr "" ""
attr recordingmode stats
attr source packetsReceived
attr title "Packets received per timeslot"
statistic Network.Users[71] packetDelayStat:stats
field count 215
field mean 3.7194436400497
field stddev 2.1541403662084
field min 0.002864098489
field max 7.358987437746
field sum 799.68038261069
field sqrsum 3967.3947466822
attr "" ""
attr recordingmode stats
attr source packetDelay
attr title "Packet delay"
par Network.Users[72] typename "\"pecsn_project.User\""
par Network.Users[72] CQIdistribution "\"binomial\""
statistic Network.Users[72] throughputStat:stats
field count 700
field mean 2.3128571428571
field stddev 56.658458771283
field min 0
field max 1494
field sum 1619
field sqrsum 2247661
attr "" ""
attr recordingmode stats
attr source throughput
attr title Throughput
statistic Network.Users[72] packetsReceivedStat:stats
field count 700
field mean 0.28285714285714
field stddev 6.8703499593
field min 0
field max 181
field sum 198
field sqrsum 33050
attr "" ""
attr recordingmode stats
attr source packetsReceived
attr title "Packets received per timeslot"
statistic Network.Users[72] packetDelayStat:stats
field count 198
field mean 3.8258713487477
field stddev 2.2470437586037
field min 0.028680532908
field max 7.58739461145
field sum 757.52252705204
field sqrsum 3892.877245936
attr "" ""
attr recordingmode stats
attr source packetDelay
attr title "Packet delay"
par Network.Users[73] typename "\"pecsn_project.User\""
par Network.Users[73] CQIdistribution "\"binomial\""
statistic Network.Users[73] throughputStat:stats
field count 700
field mean 2.0985714285714
field stddev 34.496422210276
field min 0
field max 773
field sum 1469
field sqrsum 834895
attr "" ""
attr recordingmode stats
attr source throughput
attr title Throughput
statistic Network.Users[73] packetsReceivedStat:stats
field count 700
field mean 0.26857142857143
field stddev 4.4515366126513
field min 0
field max 101
field sum 188
field sqrsum 13902
attr "" ""
attr recordingmode stats
attr source packetsReceived
attr title "Packets received per timeslot"
statistic Network.Users[73] packetDelayStat:stats
field count 188
field mean 4.1353351424976
field stddev 2.166858264639
field min 0.16625364705
field max 7.696936851015
field sum 777.44300678954
field sqrsum 4093.0037634652
attr "" ""
attr recordingmode stats
attr source packetDelay
attr title "Packet delay"
par Network.Users[74] typename "\"pecsn_project.User\""
par Network.Users[74] CQIdistribution "\"binomial\""
statistic Network.Users[74] throughputStat:stats
field count 700
field mean 2.44
field stddev 37.036240226685
field min 0
field max 682
field sum 1708
field sqrsum 962974
attr "" ""
attr recordingmode stats
attr source throughput
attr title Throughput
statistic Network.Users[74] packetsReceivedStat:stats
field count 700
field mean 0.3
field stddev 4.6087246986167
field min 0
field max 89
field sum 210
field sqrsum 14910
attr "" ""
attr recordingmode stats
attr source packetsReceived
attr title "Packets received per timeslot"
statistic Network.Users[74] packetDelayStat:stats
field count 210
field mean 3.9417021623694
field stddev 2.2174109790369
field min 0.032275219392
field max 7.893194186445
field sum 827.75745409758
field sqrsum 4290.4078397742
attr "" ""
attr recordingmode stats
attr source packetDelay
attr title "Packet delay"
par Network.Users[75] typename "\"pecsn_project.User\""
par Network.Users[75] CQIdistribution "\"binomial\""
statistic Network.Users[75] throughputStat:stats
field count 700
field mean 2.4071428571429
field stddev 33.57814885492
field min 0
field max 618
field sum 1685
field sqrsum 792173
attr "" ""
attr recordingmode stats
attr source throughput
attr title Throughput
statistic Network.Users[75] packetsReceivedStat:stats
field count 700
field mean 0.30571428571429
field stddev 4.155864763851
field min 0
field max 74
field sum 214
field sqrsum 12138
attr "" ""
attr recordingmode stats
attr source packetsReceived
attr title "Packets received per timeslot"
statistic Network.Users[75] packetDelayStat:stats
field count 214
field mean 3.946798853823
field stddev 2.4709315787612
field min 0.003249951372
field max 8.269366576127
field sum 844.61495471812
field sqrsum 4633.997445857
attr "" ""
attr recordingmode stats
attr source packetDelay
attr title "Packet delay"
par Network.Users[76] typename "\"pecsn_project.User\""
par Network.Users[76] CQIdistribution "\"binomial\""
statistic Network.Users[76] throughputStat:stats
field count 700
field mean 2.5114285714286
field stddev 42.253931402726
field min 0
field max 966
field sum 1758
field sqrsum 1252406
attr "" ""
attr recordingmode stats
attr source throughput
attr title Throughput
statistic Network.Users[76] packetsReceivedStat:stats
field count 700
field mean 0.31285714285714
field stddev 5.2109278107733
field min 0
field max 118
field sum 219
field sqrsum 19049
attr "" ""
attr recordingmode stats
attr source packetsReceived
attr title "Packets received per timeslot"
statistic Network.Users[76] packetDelayStat:stats
field count 219
field mean 4.3446330089272
field stddev 2.5807167757893
field min 0.024834276521
field max 8.649324791756
field sum 951.47462895505
field sqrsum 5585.7096788661
attr "" ""
attr recordingmode stats
attr source packetDelay
attr title "Packet delay"
par Network.Users[77] typename "\"pecsn_project.User\""
par Network.Users[77] CQIdistribution "\"binomial\""
statistic Network.Users[77] throughputStat:stats
field count 700
field mean 2.4942857142857
field stddev 36.929871621006
field min 0
field max 690
field sum 1746
field sqrsum 957662
attr "" ""
attr recordingmode stats
attr source throughput
attr title Throughput
statistic Network.Users[77] packetsReceivedStat:stats
field count 700
field mean 0.30857142857143
field stddev 4.5694996441352
field min 0
field max 85
field sum 216
field sqrsum 14662
attr "" ""
attr recordingmode stats
attr source packetsReceived
attr title "Packets received per timeslot"
statistic Network.Users[77] packetDelayStat:stats
field count 216
field mean 4.459390911458
field stddev 2.437682348327
field min 0.059469316392
field max 8.896244260622
field sum 963.22843687493
field sqrsum 5573.0056117971
attr "" ""
attr recordingmode stats
attr source packetDelay
attr title "Packet delay"
par Network.Users[78] typename "\"pecsn_project.User\""
par Network.Users[78] CQIdistribution "\"binomial\""
statistic Network.Users[78] throughputStat:stats
field count 700
field mean 2.7928571428571
field stddev 49.752419431837
field min 0
field max 970
field sum 1955
field sqrsum 1735697
attr "" ""
attr recordingmode stats
attr source throughput
attr title Throughput
statistic Network.Users[78] packetsReceivedStat:stats
field count 700
field mean 0.35142857142857
field stddev 6.1969982778628
field min 0
field max 119
field sum 246
field sqrsum 26930
attr "" ""
attr recordingmode stats
attr source packetsReceived
attr title "Packets received per timeslot"
statistic Network.Users[78] packetDelayStat:stats
field count 246
field mean 4.6007710570571
field stddev 2.7077048795944
field min 0.001107931238
field max 9.194349810802
field sum 1131.789680036
field sqrsum 7003.3633027557
attr "" ""
attr recordingmode stats
attr source packetDelay
attr title "Packet delay"
par Network.Users[79] typename "\"pecsn_project.User\""
par Network.Users[79] CQIdistribution "\"binomial\""
statistic Network.Users[79] throughputStat:stats
field count 700
field mean 2.6028571428571
field stddev 42.863518879887
field min 0
field max 972
field sum 1822
field sqrsum 1289002
attr "" ""
attr recordingmode stats
attr source throughput
attr title Throughput
[...]
par Network.PG[48] typename "\"pecsn_project.PacketGenerator\""
par Network.PG[48] NUM_USER 200
par Network.PG[48] LAMBDA 25
par Network.PG[49] typename "\"pecsn_project.PacketGenerator\""
par Network.PG[49] NUM_USER 200
par Network.PG[49] LAMBDA 25
par Network.PG[50] typename "\"pecsn_project.PacketGenerator\""
par Network.PG[50] NUM_USER 200
par Network.PG[50] LAMBDA 25
par Network.PG[51] typename "\"pecsn_project.PacketGenerator\""
par Network.PG[51] NUM_USER 200
par Network.PG[51] LAMBDA 25
par Network.PG[52] typename "\"pecsn_project.PacketGenerator\""
par Network.PG[52] NUM_USER 200
par Network.PG[52] LAMBDA 25
par Network.PG[53] typename "\"pecsn_project.PacketGenerator\""
par Network.PG[53] NUM_USER 200
par Network.PG[53] LAMBDA 25
par Network.PG[54] typename "\"pecsn_project.PacketGenerator\""
par Network.PG[54] NUM_USER 200
par Network.PG[54] LAMBDA 25
par Network.PG[55] typename "\"pecsn_project.PacketGenerator\""
par Network.PG[55] NUM_USER 200
par Network.PG[55] LAMBDA 25
par Network.PG[56] typename "\"pecsn_project.PacketGenerator\""
par Network.PG[56] NUM_USER 200
par Network.PG[56] LAMBDA 25
par Network.PG[57] typename "\"pecsn_project.PacketGenerator\""
par Network.PG[57] NUM_USER 200
par Network.PG[57] LAMBDA 25
par Network.PG[58] typename "\"pecsn_project.PacketGenerator\""
par Network.PG[58] NUM_USER 200
par Network.PG[58] LAMBDA 25
par Network.PG[59] typename "\"pecsn_project.PacketGenerator\""
par Network.PG[59] NUM_USER 200
par Network.PG[59] LAMBDA 25
par Network.PG[60] typename "\"pecsn_project.PacketGenerator\""
par Network.PG[60] NUM_USER 200
par Network.PG[60] LAMBDA 25
par Network.PG[61] typename "\"pecsn_project.PacketGenerator\""
par Network.PG[61] NUM_USER 200
par Network.PG[61] LAMBDA 25
par Network.PG[62] typename "\"pecsn_project.PacketGenerator\""
par Network.PG[62] NUM_USER 200
par Network.PG[62] LAMBDA 25
par Network.PG[63] typename "\"pecsn_project.PacketGenerator\""
par Network.PG[63] NUM_USER 200
par Network.PG[63] LAMBDA 25
par Network.PG[64] typename "\"pecsn_project.PacketGenerator\""
par Network.PG[64] NUM_USER 200
par Network.PG[64] LAMBDA 25
par Network.PG[65] typename "\"pecsn_project.PacketGenerator\""
par Network.PG[65] NUM_USER 200
par Network.PG[65] LAMBDA 25
par Network.PG[66] typename "\"pecsn_project.PacketGenerator\""
par Network.PG[66] NUM_USER 200
par Network.PG[66] LAMBDA 25
par Network.PG[67] typename "\"pecsn_project.PacketGenerator\""
par Network.PG[67] NUM_USER 200
par Network.PG[67] LAMBDA 25
par Network.PG[68] typename "\"pecsn_project.PacketGenerator\""
par Network.PG[68] NUM_USER 200
par Network.PG[68] LAMBDA 25
par Network.PG[69] typename "\"pecsn_project.PacketGenerator\""
par Network.PG[69] NUM_USER 200
par Network.PG[69] LAMBDA 25
par Network.PG[70] typename "\"pecsn_project.PacketGenerator\""
par Network.PG[70] NUM_USER 200
par Network.PG[70] LAMBDA 25
par Network.PG[71] typename "\"pecsn_project.PacketGenerator\""
par Network.PG[71] NUM_USER 200
par Network.PG[71] LAMBDA 25
par Network.PG[72] typename "\"pecsn_project.PacketGenerator\""
par Network.PG[72] NUM_USER 200
par Network.PG[72] LAMBDA 25
par Network.PG[73] typename "\"pecsn_project.PacketGenerator\""
par Network.PG[73] NUM_USER 200
par Network.PG[73] LAMBDA 25
par Network.PG[74] typename "\"pecsn_project.PacketGenerator\""
par Network.PG[74] NUM_USER 200
par Network.PG[74] LAMBDA 25
par Network.PG[75] typename "\"pecsn_project.PacketGenerator\""
par Network.PG[75] NUM_USER 200
par Network.PG[75] LAMBDA 25
par Network.PG[76] typename "\"pecsn_project.PacketGenerator\""
par Network.PG[76] NUM_USER 200
par Network.PG[76] LAMBDA 25
par Network.PG[77] typename "\"pecsn_project.PacketGenerator\""
par Network.PG[77] NUM_USER 200
par Network.PG[77] LAMBDA 25
par Network.PG[78] typename "\"pecsn_project.PacketGenerator\""
par Network.PG[78] NUM_USER 200
par Network.PG[78] LAMBDA 25
par Network.PG[79] typename "\"pecsn_project.PacketGenerator\""
par Network.PG[79] NUM_USER 200
par Network.PG[79] LAMBDA 25
par Network.PG[80] typename "\"pecsn_project.PacketGenerator\""
par Network.PG[80] NUM_USER 200
par Network.PG[80] LAMBDA 25
par Network.PG[81] typename "\"pecsn_project.PacketGenerator\""
par Network.PG[81] NUM_USER 200
par Network.PG[81] LAMBDA 25
par Network.PG[82] typename "\"pecsn_project.PacketGenerator\""
par Network.PG[82] NUM_USER 200
par Network.PG[82] LAMBDA 25
par Network.PG[83] typename "\"pecsn_project.PacketGenerator\""
par Network.PG[83] NUM_USER 200
par Network.PG[83] LAMBDA 25
par Network.PG[84] typename "\"pecsn_project.PacketGenerator\""
par Network.PG[84] NUM_USER 200
par Network.PG[84] LAMBDA 25
par Network.PG[85] typename "\"pecsn_project.PacketGenerator\""
par Network.PG[85] NUM_USER 200
par Network.PG[85] LAMBDA 25
par Network.PG[86] typename "\"pecsn_project.PacketGenerator\""
par Network.PG[86] NUM_USER 200
par Network.PG[86] LAMBDA 25
par Network.PG[87] typename "\"pecsn_project.PacketGenerator\""
par Network.PG[87] NUM_USER 200
par Network.PG[87] LAMBDA 25
par Network.PG[88] typename "\"pecsn_project.PacketGenerator\""
par Network.PG[88] NUM_USER 200
par Network.PG[88] LAMBDA 25
par Network.PG[89] typename "\"pecsn_project.PacketGenerator\""
par Network.PG[89] NUM_USER 200
par Network.PG[89] LAMBDA 25
par Network.PG[90] typename "\"pecsn_project.PacketGenerator\""
par Network.PG[90] NUM_USER 200
par Network.PG[90] LAMBDA 25
par Network.PG[91] typename "\"pecsn_project.PacketGenerator\""
par Network.PG[91] NUM_USER 200
par Network.PG[91] LAMBDA 25
par Network.PG[92] typename "\"pecsn_project.PacketGenerator\""
par Network.PG[92] NUM_USER 200
par Network.PG[92] LAMBDA 25
par Network.PG[93] typename "\"pecsn_project.PacketGenerator\""
par Network.PG[93] NUM_USER 200
par Network.PG[93] LAMBDA 25
par Network.PG[94] typename "\"pecsn_project.PacketGenerator\""
par Network.PG[94] NUM_USER 200
par Network.PG[94] LAMBDA 25
par Network.PG[95] typename "\"pecsn_project.PacketGenerator\""
par Network.PG[95] NUM_USER 200
par Network.PG[95] LAMBDA 25
par Network.PG[96] typename "\"pecsn_project.PacketGenerator\""
par Network.PG[96] NUM_USER 200
par Network.PG[96] LAMBDA 25
par Network.PG[97] typename "\"pecsn_project.PacketGenerator\""
par Network.PG[97] NUM_USER 200
par Network.PG[97] LAMBDA 25
par Network.PG[98] typename "\"pecsn_project.PacketGenerator\""
par Network.PG[98] NUM_USER 200
par Network.PG[98] LAMBDA 25
par Network.PG[99] typename "\"pecsn_project.PacketGenerator\""
par Network.PG[99] NUM_USER 200
par Network.PG[99] LAMBDA 25
par Network.PG[100] typename "\"pecsn_project.PacketGenerator\""
par Network.PG[100] NUM_USER 200
par Network.PG[100] LAMBDA 25
par Network.PG[101] typename "\"pecsn_project.PacketGenerator\""
par Network.PG[101] NUM_USER 200
par Network.PG[101] LAMBDA 25
par Network.PG[102] typename "\"pecsn_project.PacketGenerator\""
par Network.PG[102] NUM_USER 200
par Network.PG[102] LAMBDA 25
par Network.PG[103] typename "\"pecsn_project.PacketGenerator\""
par Network.PG[103] NUM_USER 200
par Network.PG[103] LAMBDA 25
par Network.PG[104] typename "\"pecsn_project.PacketGenerator\""
par Network.PG[104] NUM_USER 200
par Network.PG[104] LAMBDA 25
par Network.PG[105] typename "\"pecsn_project.PacketGenerator\""
par Network.PG[105] NUM_USER 200
par Network.PG[105] LAMBDA 25
par Network.PG[106] typename "\"pecsn_project.PacketGenerator\""
par Network.PG[106] NUM_USER 200
par Network.PG[106] LAMBDA 25
par Network.PG[107] typename "\"pecsn_project.PacketGenerator\""
par Network.PG[107] NUM_USER 200
par Network.PG[107] LAMBDA 25
par Network.PG[108] typename "\"pecsn_project.PacketGenerator\""
par Network.PG[108] NUM_USER 200
par Network.PG[108] LAMBDA 25
par Network.PG[109] typename "\"pecsn_project.PacketGenerator\""
par Network.PG[109] NUM_USER 200
par Network.PG[109] LAMBDA 25
par Network.PG[110] typename "\"pecsn_project.PacketGenerator\""
par Network.PG[110] NUM_USER 200
par Network.PG[110] LAMBDA 25
par Network.PG[111] typename "\"pecsn_project.PacketGenerator\""
par Network.PG[111] NUM_USER 200
par Network.PG[111] LAMBDA 25
par Network.PG[112] typename "\"pecsn_project.PacketGenerator\""
par Network.PG[112] NUM_USER 200
par Network.PG[112] LAMBDA 25
par Network.PG[113] typename "\"pecsn_project.PacketGenerator\""
par Network.PG[113] NUM_USER 200
par Network.PG[113] LAMBDA 25
par Network.PG[114] typename "\"pecsn_project.PacketGenerator\""
par Network.PG[114] NUM_USER 200
par Network.PG[114] LAMBDA 25
par Network.PG[115] typename "\"pecsn_project.PacketGenerator\""
par Network.PG[115] NUM_USER 200
par Network.PG[115] LAMBDA 25
par Network.PG[116] typename "\"pecsn_project.PacketGenerator\""
par Network.PG[116] NUM_USER 200
par Network.PG[116] LAMBDA 25
par Network.PG[117] typename "\"pecsn_project.PacketGenerator\""
par Network.PG[117] NUM_USER 200
par Network.PG[117] LAMBDA 25
par Network.PG[118] typename "\"pecsn_project.PacketGenerator\""
par Network.PG[118] NUM_USER 200
par Network.PG[118] LAMBDA 25
par Network.PG[119] typename "\"pecsn_project.PacketGenerator\""
par Network.PG[119] NUM_USER 200
par Network.PG[119] LAMBDA 25
par Network.PG[120] typename "\"pecsn_project.PacketGenerator\""
par Network.PG[120] NUM_USER 200
par Network.PG[120] LAMBDA 25
par Network.PG[121] typename "\"pecsn_project.PacketGenerator\""
par Network.PG[121] NUM_USER 200
par Network.PG[121] LAMBDA 25
par Network.PG[122] typename "\"pecsn_project.PacketGenerator\""
par Network.PG[122] NUM_USER 200
par Network.PG[122] LAMBDA 25
par Network.PG[123] typename "\"pecsn_project.PacketGenerator\""
par Network.PG[123] NUM_USER 200
par Network.PG[123] LAMBDA 25
par Network.PG[124] typename "\"pecsn_project.PacketGenerator\""
par Network.PG[124] NUM_USER 200
par Network.PG[124] LAMBDA 25
par Network.PG[125] typename "\"pecsn_project.PacketGenerator\""
par Network.PG[125] NUM_USER 200
par Network.PG[125] LAMBDA 25
par Network.PG[126] typename "\"pecsn_project.PacketGenerator\""
par Network.PG[126] NUM_USER 200
par Network.PG[126] LAMBDA 25
par Network.PG[127] typename "\"pecsn_project.PacketGenerator\""
par Network.PG[127] NUM_USER 200
par Network.PG[127] LAMBDA 25
par Network.PG[128] typename "\"pecsn_project.PacketGenerator\""
par Network.PG[128] NUM_USER 200
par Network.PG[128] LAMBDA 25
par Network.PG[129] typename "\"pecsn_project.PacketGenerator\""
par Network.PG[129] NUM_USER 200
par Network.PG[129] LAMBDA 25
par Network.PG[130] typename "\"pecsn_project.PacketGenerator\""
par Network.PG[130] NUM_USER 200
par Network.PG[130] LAMBDA 25
par Network.PG[131] typename "\"pecsn_project.PacketGenerator\""
par Network.PG[131] NUM_USER 200
par Network.PG[131] LAMBDA 25
par Network.PG[132] typename "\"pecsn_project.PacketGenerator\""
par Network.PG[132] NUM_USER 200
par Network.PG[132] LAMBDA 25
par Network.PG[133] typename "\"pecsn_project.PacketGenerator\""
par Network.PG[133] NUM_USER 200
par Network.PG[133] LAMBDA 25
par Network.PG[134] typename "\"pecsn_project.PacketGenerator\""
par Network.PG[134] NUM_USER 200
par Network.PG[134] LAMBDA 25
par Network.PG[135] typename "\"pecsn_project.PacketGenerator\""
par Network.PG[135] NUM_USER 200
par Network.PG[135] LAMBDA 25
par Network.PG[136] typename "\"pecsn_project.PacketGenerator\""
par Network.PG[136] NUM_USER 200
par Network.PG[136] LAMBDA 25
par Network.PG[137] typename "\"pecsn_project.PacketGenerator\""
par Network.PG[137] NUM_USER 200
par Network.PG[137] LAMBDA 25
par Network.PG[138] typename "\"pecsn_project.PacketGenerator\""
par Network.PG[138] NUM_USER 200
par Network.PG[138] LAMBDA 25
par Network.PG[139] typename "\"pecsn_project.PacketGenerator\""
par Network.PG[139] NUM_USER 200
par Network.PG[139] LAMBDA 25
par Network.PG[140] typename "\"pecsn_project.PacketGenerator\""
par Network.PG[140] NUM_USER 200
par Network.PG[140] LAMBDA 25
par Network.PG[141] typename "\"pecsn_project.PacketGenerator\""
par Network.PG[141] NUM_USER 200
par Network.PG[141] LAMBDA 25
par Network.PG[142] typename "\"pecsn_project.PacketGenerator\""
par Network.PG[142] NUM_USER 200
par Network.PG[142] LAMBDA 25
par Network.PG[143] typename "\"pecsn_project.PacketGenerator\""
par Network.PG[143] NUM_USER 200
par Network.PG[143] LAMBDA 25
par Network.PG[144] typename "\"pecsn_project.PacketGenerator\""
par Network.PG[144] NUM_USER 200
par Network.PG[144] LAMBDA 25
par Network.PG[145] typename "\"pecsn_project.PacketGenerator\""
par Network.PG[145] NUM_USER 200
par Network.PG[145] LAMBDA 25
par Network.PG[146] typename "\"pecsn_project.PacketGenerator\""
par Network.PG[146] NUM_USER 200
par Network.PG[146] LAMBDA 25
par Network.PG[147] typename "\"pecsn_project.PacketGenerator\""
par Network.PG[147] NUM_USER 200
par Network.PG[147] LAMBDA 25
par Network.PG[148] typename "\"pecsn_project.PacketGenerator\""
par Network.PG[148] NUM_USER 200
par Network.PG[148] LAMBDA 25
par Network.PG[149] typename "\"pecsn_project.PacketGenerator\""
par Network.PG[149] NUM_USER 200
par Network.PG[149] LAMBDA 25
par Network.PG[150] typename "\"pecsn_project.PacketGenerator\""
par Network.PG[150] NUM_USER 200
par Network.PG[150] LAMBDA 25
par Network.PG[151] typename "\"pecsn_project.PacketGenerator\""
par Network.PG[151] NUM_USER 200
par Network.PG[151] LAMBDA 25
par Network.PG[152] typename "\"pecsn_project.PacketGenerator\""
par Network.PG[152] NUM_USER 200
par Network.PG[152] LAMBDA 25
par Network.PG[153] typename "\"pecsn_project.PacketGenerator\""
par Network.PG[153] NUM_USER 200
par Network.PG[153] LAMBDA 25
par Network.PG[154] typename "\"pecsn_project.PacketGenerator\""
par Network.PG[154] NUM_USER 200
par Network.PG[154] LAMBDA 25
par Network.PG[155] typename "\"pecsn_project.PacketGenerator\""
par Network.PG[155] NUM_USER 200
par Network.PG[155] LAMBDA 25
par Network.PG[156] typename "\"pecsn_project.PacketGenerator\""
par Network.PG[156] NUM_USER 200
par Network.PG[156] LAMBDA 25
par Network.PG[157] typename "\"pecsn_project.PacketGenerator\""
par Network.PG[157] NUM_USER 200
par Network.PG[157] LAMBDA 25
par Network.PG[158] typename "\"pecsn_project.PacketGenerator\""
par Network.PG[158] NUM_USER 200
par Network.PG[158] LAMBDA 25
par Network.PG[159] typename "\"pecsn_project.PacketGenerator\""
par Network.PG[159] NUM_USER 200
par Network.PG[159] LAMBDA 25
par Network.PG[160] typename "\"pecsn_project.PacketGenerator\""
par Network.PG[160] NUM_USER 200
par Network.PG[160] LAMBDA 25
par Network.PG[161] typename "\"pecsn_project.PacketGenerator\""
par Network.PG[161] NUM_USER 200
par Network.PG[161] LAMBDA 25
par Network.PG[162] typename "\"pecsn_project.PacketGenerator\""
par Network.PG[162] NUM_USER 200
par Network.PG[162] LAMBDA 25
par Network.PG[163] typename "\"pecsn_project.PacketGenerator\""
par Network.PG[163] NUM_USER 200
par Network.PG[163] LAMBDA 25
par Network.PG[164] typename "\"pecsn_project.PacketGenerator\""
par Network.PG[164] NUM_USER 200
par Network.PG[164] LAMBDA 25
par Network.PG[165] typename "\"pecsn_project.PacketGenerator\""
par Network.PG[165] NUM_USER 200
par Network.PG[165] LAMBDA 25
par Network.PG[166] typename "\"pecsn_project.PacketGenerator\""
par Network.PG[166] NUM_USER 200
par Network.PG[166] LAMBDA 25
par Network.PG[167] typename "\"pecsn_project.PacketGenerator\""
par Network.PG[167] NUM_USER 200
par Network.PG[167] LAMBDA 25
par Network.PG[168] typename "\"pecsn_project.PacketGenerator\""
par Network.PG[168] NUM_USER 200
par Network.PG[168] LAMBDA 25
par Network.PG[169] typename "\"pecsn_project.PacketGenerator\""
par Network.PG[169] NUM_USER 200
par Network.PG[169] LAMBDA 25
par Network.PG[170] typename "\"pecsn_project.PacketGenerator\""
par Network.PG[170] NUM_USER 200
par Network.PG[170] LAMBDA 25
par Network.PG[171] typename "\"pecsn_project.PacketGenerator\""
par Network.PG[171] NUM_USER 200
par Network.PG[171] LAMBDA 25
par Network.PG[172] typename "\"pecsn_project.PacketGenerator\""
par Network.PG[172] NUM_USER 200
par Network.PG[172] LAMBDA 25
par Network.PG[173] typename "\"pecsn_project.PacketGenerator\""
par Network.PG[173] NUM_USER 200
par Network.PG[173] LAMBDA 25
par Network.PG[174] typename "\"pecsn_project.PacketGenerator\""
par Network.PG[174] NUM_USER 200
par Network.PG[174] LAMBDA 25
par Network.PG[175] typename "\"pecsn_project.PacketGenerator\""
par Network.PG[175] NUM_USER 200
par Network.PG[175] LAMBDA 25
par Network.PG[176] typename "\"pecsn_project.PacketGenerator\""
par Network.PG[176] NUM_USER 200
par Network.PG[176] LAMBDA 25
par Network.PG[177] typename "\"pecsn_project.PacketGenerator\""
par Network.PG[177] NUM_USER 200
par Network.PG[177] LAMBDA 25
par Network.PG[178] typename "\"pecsn_project.PacketGenerator\""
par Network.PG[178] NUM_USER 200
par Network.PG[178] LAMBDA 25
par Network.PG[179] typename "\"pecsn_project.PacketGenerator\""
par Network.PG[179] NUM_USER 200
par Network.PG[179] LAMBDA 25
par Network.PG[180] typename "\"pecsn_project.PacketGenerator\""
par Network.PG[180] NUM_USER 200
par Network.PG[180] LAMBDA 25
par Network.PG[181] typename "\"pecsn_project.PacketGenerator\""
par Network.PG[181] NUM_USER 200
par Network.PG[181] LAMBDA 25
par Network.PG[182] typename "\"pecsn_project.PacketGenerator\""
par Network.PG[182] NUM_USER 200
par Network.PG[182] LAMBDA 25
par Network.PG[183] typename "\"pecsn_project.PacketGenerator\""
par Network.PG[183] NUM_USER 200
par Network.PG[183] LAMBDA 25
par Network.PG[184] typename "\"pecsn_project.PacketGenerator\""
par Network.PG[184] NUM_USER 200
par Network.PG[184] LAMBDA 25
par Network.PG[185] typename "\"pecsn_project.PacketGenerator\""
par Network.PG[185] NUM_USER 200
par Network.PG[185] LAMBDA 25
par Network.PG[186] typename "\"pecsn_project.PacketGenerator\""
par Network.PG[186] NUM_USER 200
par Network.PG[186] LAMBDA 25
par Network.PG[187] typename "\"pecsn_project.PacketGenerator\""
par Network.PG[187] NUM_USER 200
par Network.PG[187] LAMBDA 25
par Network.PG[188] typename "\"pecsn_project.PacketGenerator\""
par Network.PG[188] NUM_USER 200
par Network.PG[188] LAMBDA 25
par Network.PG[189] typename "\"pecsn_project.PacketGenerator\""
par Network.PG[189] NUM_USER 200
par Network.PG[189] LAMBDA 25
par Network.PG[190] typename "\"pecsn_project.PacketGenerator\""
par Network.PG[190] NUM_USER 200
par Network.PG[190] LAMBDA 25
par Network.PG[191] typename "\"pecsn_project.PacketGenerator\""
par Network.PG[191] NUM_USER 200
par Network.PG[191] LAMBDA 25
par Network.PG[192] typename "\"pecsn_project.PacketGenerator\""
par Network.PG[192] NUM_USER 200
par Network.PG[192] LAMBDA 25
par Network.PG[193] typename "\"pecsn_project.PacketGenerator\""
par Network.PG[193] NUM_USER 200
par Network.PG[193] LAMBDA 25
par Network.PG[194] typename "\"pecsn_project.PacketGenerator\""
par Network.PG[194] NUM_USER 200
par Network.PG[194] LAMBDA 25
par Network.PG[195] typename "\"pecsn_project.PacketGenerator\""
par Network.PG[195] NUM_USER 200
par Network.PG[195] LAMBDA 25
par Network.PG[196] typename "\"pecsn_project.PacketGenerator\""
par Network.PG[196] NUM_USER 200
par Network.PG[196] LAMBDA 25
par Network.PG[197] typename "\"pecsn_project.PacketGenerator\""
par Network.PG[197] NUM_USER 200
par Network.PG[197] LAMBDA 25
par Network.PG[198] typename "\"pecsn_project.PacketGenerator\""
par Network.PG[198] NUM_USER 200
par Network.PG[198] LAMBDA 25
par Network.PG[199] typename "\"pecsn_project.PacketGenerator\""
par Network.PG[199] NUM_USER 200
par Network.PG[199] LAMBDA 25
par Network typename "\"pecsn_project.simulations.Network\""
par Network NUM_USER 200
par Network lambda 10
par Network CQIRngMultiplier 0
par Network PktSizeRngMultiplier 1
par Network PktGenerationRngMultiplier 2

