version 3
run uniformCQI-200-20231215-10:48:14-7972
attr configname uniformCQI
attr datetime 20231215-10:48:14
attr datetimef 20231215-104814
attr experiment uniformCQI
attr inifile omnetpp.ini
attr iterationvars "$simulationTime=70s, $nUser=200, $lambda=25"
attr iterationvarsd simulationTime=70s/nUser=200/lambda=25
attr iterationvarsf simulationTime=70s,nUser=200,lambda=25-
attr measurement "$simulationTime=70s, $nUser=200, $lambda=25"
attr network Network
attr processid 7972
attr repetition 0
attr replication #0
attr resultdir results
attr runnumber 200
attr seedset 0
itervar lambda 25
itervar nUser 200
itervar simulationTime 70s
config **.Users[*].CQIdistribution "\"uniform\""
config network Network
config cpu-time-limit 60s
config sim-time-limit 70s
config num-rngs 600
config repeat 10
config seed-set 0
config **.NUM_USER 200
config **.LAMBDA 25
config **.CQIArrayLength 15
config **.CQIValues "\" 3 3 6 11 15 20 25 36 39 50 63 72 80 93 93 \""
config **.frameSize 25
config **.timeSlot 0.1

par Network.BS typename "\"pecsn_project.BaseStation\""
par Network.BS CQIValues "\" 3 3 6 11 15 20 25 36 39 50 63 72 80 93 93 \""
par Network.BS CQIArrayLength 15
par Network.BS frameSize 25
par Network.BS timeSlot 0.1
statistic Network.BS simFrameStat:stats
field count 700
field mean 24.964285714286
field stddev 0.94491118252308
field min 0
field max 25
field sum 17475
field sqrsum 436875
attr "" ""
attr recordingmode stats
attr source simFrame
attr title "Occupied frame slots"
par Network.Users[0] typename "\"pecsn_project.User\""
par Network.Users[0] CQIdistribution "\"uniform\""
statistic Network.Users[0] throughputStat:stats
field count 700
field mean 8.8242857142857
field stddev 113.70497041177
field min 0
field max 2323
field sum 6177
field sqrsum 9091753
attr "" ""
attr recordingmode stats
attr source throughput
attr title Throughput
statistic Network.Users[0] packetsReceivedStat:stats
field count 700
field mean 1.11
field stddev 14.277874376446
field min 0
field max 284
field sum 777
field sqrsum 143359
attr "" ""
attr recordingmode stats
attr source packetsReceived
attr title "Packets received per timeslot"
statistic Network.Users[0] packetDelayStat:stats
field count 777
field mean 14.809101157299
field stddev 8.981541224822
field min 0.001955177617
field max 30.790039967441
field sum 11506.671599222
field sqrsum 233001.89592868
attr "" ""
attr recordingmode stats
attr source packetDelay
attr title "Packet delay"
par Network.Users[1] typename "\"pecsn_project.User\""
par Network.Users[1] CQIdistribution "\"uniform\""
statistic Network.Users[1] throughputStat:stats
field count 700
field mean 5.4785714285714
field stddev 63.045396349119
field min 0
field max 898
field sum 3835
field sqrsum 2799341
attr "" ""
attr recordingmode stats
attr source throughput
attr title Throughput
statistic Network.Users[1] packetsReceivedStat:stats
field count 700
field mean 0.67857142857143
field stddev 7.7589468935938
field min 0
field max 112
field sum 475
field sqrsum 42403
attr "" ""
attr recordingmode stats
attr source packetsReceived
attr title "Packets received per timeslot"
statistic Network.Users[1] packetDelayStat:stats
field count 475
field mean 22.129142026915
field stddev 5.4466292313658
field min 0.036548633071
field max 31.398775488153
field sum 10511.342462785
field sqrsum 246668.56522491
attr "" ""
attr recordingmode stats
attr source packetDelay
attr title "Packet delay"
par Network.Users[2] typename "\"pecsn_project.User\""
par Network.Users[2] CQIdistribution "\"uniform\""
statistic Network.Users[2] throughputStat:stats
field count 700
field mean 9.27
field stddev 108.06523204844
field min 0
field max 1569
field sum 6489
field sqrsum 8223141
attr "" ""
attr recordingmode stats
attr source throughput
attr title Throughput
statistic Network.Users[2] packetsReceivedStat:stats
field count 700
field mean 1.1628571428571
field stddev 13.512111574696
field min 0
field max 204
field sum 814
field sqrsum 128568
attr "" ""
attr recordingmode stats
attr source packetsReceived
attr title "Packets received per timeslot"
statistic Network.Users[2] packetDelayStat:stats
field count 814
field mean 16.219715187166
field stddev 9.2159382821484
field min 0.02670747925
field max 31.975745897168
field sum 13202.848162353
field sqrsum 283197.38732854
attr "" ""
attr recordingmode stats
attr source packetDelay
attr title "Packet delay"
par Network.Users[3] typename "\"pecsn_project.User\""
par Network.Users[3] CQIdistribution "\"uniform\""
statistic Network.Users[3] throughputStat:stats
field count 700
field mean 9.3142857142857
field stddev 118.30443051371
field min 0
field max 2322
field sum 6520
field sqrsum 9843890
attr "" ""
attr recordingmode stats
attr source throughput
attr title Throughput
statistic Network.Users[3] packetsReceivedStat:stats
field count 700
field mean 1.1714285714286
field stddev 14.995727983528
field min 0
field max 298
field sum 820
field sqrsum 158146
attr "" ""
attr recordingmode stats
attr source packetsReceived
attr title "Packets received per timeslot"
statistic Network.Users[3] packetDelayStat:stats
field count 820
field mean 16.169727759183
field stddev 9.447879701165
field min 0.006084584215
field max 32.59798929793
field sum 13259.17676253
field sqrsum 287503.20942524
attr "" ""
attr recordingmode stats
attr source packetDelay
attr title "Packet delay"
par Network.Users[4] typename "\"pecsn_project.User\""
par Network.Users[4] CQIdistribution "\"uniform\""
statistic Network.Users[4] throughputStat:stats
field count 700
field mean 4.0371428571429
field stddev 72.398644403224
field min 0
field max 1797
field sum 2826
field sqrsum 3675262
attr "" ""
attr recordingmode stats
attr source throughput
attr title Throughput
statistic Network.Users[4] packetsReceivedStat:stats
field count 700
field mean 0.50714285714286
field stddev 9.2793989591967
field min 0
field max 232
field sum 355
field sqrsum 60369
attr "" ""
attr recordingmode stats
attr source packetsReceived
attr title "Packets received per timeslot"
statistic Network.Users[4] packetDelayStat:stats
field count 355
field mean 25.173810840645
field stddev 4.9105396487192
field min 0.031504134271
field max 33.165448530611
field sum 8936.7028484289
field sqrsum 233507.01051854
attr "" ""
attr recordingmode stats
attr source packetDelay
attr title "Packet delay"
par Network.Users[5] typename "\"pecsn_project.User\""
par Network.Users[5] CQIdistribution "\"uniform\""
statistic Network.Users[5] throughputStat:stats
field count 700
field mean 9.3157142857143
field stddev 124.78694419223
field min 0
field max 2320
field sum 6521
field sqrsum 10945423
attr "" ""
attr recordingmode stats
attr source throughput
attr title Throughput
statistic Network.Users[5] packetsReceivedStat:stats
field count 700
field mean 1.1871428571429
field stddev 15.908198922868
field min 0
field max 288
field sum 831
field sqrsum 177883
attr "" ""
attr recordingmode stats
attr source packetsReceived
attr title "Packets received per timeslot"
statistic Network.Users[5] packetDelayStat:stats
field count 831
field mean 16.20182482958
field stddev 9.8341855415327
field min 0.016167998817
field max 33.330554877446
field sum 13463.716433381
field sqrsum 298407.07557898
attr "" ""
attr recordingmode stats
attr source packetDelay
attr title "Packet delay"
par Network.Users[6] typename "\"pecsn_project.User\""
par Network.Users[6] CQIdistribution "\"uniform\""
statistic Network.Users[6] throughputStat:stats
field count 700
field mean 9.8185714285714
field stddev 140.0696534197
field min 0
field max 2324
field sum 6873
field sqrsum 13781519
attr "" ""
attr recordingmode stats
attr source throughput
attr title Throughput
statistic Network.Users[6] packetsReceivedStat:stats
field count 700
field mean 1.22
field stddev 17.334466233473
field min 0
field max 289
field sum 854
field sqrsum 211080
attr "" ""
attr recordingmode stats
attr source packetsReceived
attr title "Packets received per timeslot"
statistic Network.Users[6] packetDelayStat:stats
field count 854
field mean 17.272737090949
field stddev 9.7546169405083
field min 0.001207588477
field max 33.90026307169
field sum 14750.91747567
field sqrsum 335953.84597015
attr "" ""
attr recordingmode stats
attr source packetDelay
attr title "Packet delay"
par Network.Users[7] typename "\"pecsn_project.User\""
par Network.Users[7] CQIdistribution "\"uniform\""
statistic Network.Users[7] throughputStat:stats
field count 700
field mean 0.87714285714286
field stddev 19.078162931423
field min 0
field max 497
field sum 614
field sqrsum 254958
attr "" ""
attr recordingmode stats
attr source throughput
attr title Throughput
statistic Network.Users[7] packetsReceivedStat:stats
field count 700
field mean 0.11285714285714
field stddev 2.5214627444305
field min 0
field max 66
field sum 79
field sqrsum 4453
attr "" ""
attr recordingmode stats
attr source packetsReceived
attr title "Packets received per timeslot"
statistic Network.Users[7] packetDelayStat:stats
field count 79
field mean 31.342429404721
field stddev 7.3148441723252
field min 0.007902420751
field max 34.38418379042
field sum 2476.051922973
field sqrsum 81779.024328907
attr "" ""
attr recordingmode stats
attr source packetDelay
attr title "Packet delay"
par Network.Users[8] typename "\"pecsn_project.User\""
par Network.Users[8] CQIdistribution "\"uniform\""
statistic Network.Users[8] throughputStat:stats
field count 700
field mean 10.058571428571
field stddev 128.74140719452
field min 0
field max 2318
field sum 7041
field sqrsum 11656293
attr "" ""
attr recordingmode stats
attr source throughput
attr title Throughput
statistic Network.Users[8] packetsReceivedStat:stats
field count 700
field mean 1.27
field stddev 16.192510057871
field min 0
field max 287
field sum 889
field sqrsum 184405
attr "" ""
attr recordingmode stats
attr source packetsReceived
attr title "Packets received per timeslot"
statistic Network.Users[8] packetDelayStat:stats
field count 889
field mean 17.160607882846
field stddev 9.9886166291191
field min 0.038021306187
field max 34.498659960782
field sum 15255.78040785
field sqrsum 350396.41192711
attr "" ""
attr recordingmode stats
attr source packetDelay
attr title "Packet delay"
par Network.Users[9] typename "\"pecsn_project.User\""
par Network.Users[9] CQIdistribution "\"uniform\""
statistic Network.Users[9] throughputStat:stats
field count 700
field mean 0.88285714285714
field stddev 13.614369790278
field min 0
field max 288
field sum 618
field sqrsum 130106
attr "" ""
attr recordingmode stats
attr source throughput
attr title Throughput
statistic Network.Users[9] packetsReceivedStat:stats
field count 700
field mean 0.11142857142857
field stddev 1.675075456387
field min 0
field max 33
field sum 78
field sqrsum 1970
attr "" ""
attr recordingmode stats
attr source packetsReceived
attr title "Packets received per timeslot"
statistic Network.Users[9] packetDelayStat:stats
field count 78
field mean 32.043190049045
field stddev 7.5175882570526
field min 0.011690819571
field max 35.043375296625
field sum 2499.3688238255
field sqrsum 84439.338481095
attr "" ""
attr recordingmode stats
attr source packetDelay
attr title "Packet delay"
par Network.Users[10] typename "\"pecsn_project.User\""
par Network.Users[10] CQIdistribution "\"uniform\""
statistic Network.Users[10] throughputStat:stats
field count 700
field mean 6.4414285714286
field stddev 106.94899108096
field min 0
field max 2323
field sum 4509
field sqrsum 8024267
attr "" ""
attr recordingmode stats
attr source throughput
attr title Throughput
statistic Network.Users[10] packetsReceivedStat:stats
field count 700
field mean 0.78428571428571
field stddev 13.048738127803
field min 0
field max 285
field sum 549
field sqrsum 119449
attr "" ""
attr recordingmode stats
attr source packetsReceived
attr title "Packets received per timeslot"
statistic Network.Users[10] packetDelayStat:stats
field count 549
field mean 25.314392745039
field stddev 6.2019855018247
field min 0.003540476566
field max 35.31354972131
field sum 13897.601617027
field sqrsum 372887.95958984
attr "" ""
attr recordingmode stats
attr source packetDelay
attr title "Packet delay"
par Network.Users[11] typename "\"pecsn_project.User\""
par Network.Users[11] CQIdistribution "\"uniform\""
statistic Network.Users[11] throughputStat:stats
field count 700
field mean 10.354285714286
field stddev 127.63563649728
field min 0
field max 2319
field sum 7248
field sqrsum 11462356
attr "" ""
attr recordingmode stats
attr source throughput
attr title Throughput
statistic Network.Users[11] packetsReceivedStat:stats
field count 700
field mean 1.2914285714286
field stddev 15.866780359805
field min 0
field max 291
field sum 904
field sqrsum 177144
attr "" ""
attr recordingmode stats
attr source packetsReceived
attr title "Packets received per timeslot"
statistic Network.Users[11] packetDelayStat:stats
field count 904
field mean 17.689033262634
field stddev 10.202706985682
field min 0.035765546896
field max 35.886350161159
field sum 15990.886069421
field sqrsum 376861.30812261
attr "" ""
attr recordingmode stats
attr source packetDelay
attr title "Packet delay"
par Network.Users[12] typename "\"pecsn_project.User\""
par Network.Users[12] CQIdistribution "\"uniform\""
statistic Network.Users[12] throughputStat:stats
field count 700
field mean 10.3
field stddev 123.84005444284
field min 0
field max 2324
field sum 7210
field sqrsum 10794378
attr "" ""
attr recordingmode stats
attr source throughput
attr title Throughput
statistic Network.Users[12] packetsReceivedStat:stats
field count 700
field mean 1.3042857142857
field stddev 15.757832357432
field min 0
field max 293
field sum 913
field sqrsum 174759
attr "" ""
attr recordingmode stats
attr source packetsReceived
attr title "Packets received per timeslot"
statistic Network.Users[12] packetDelayStat:stats
field count 913
field mean 17.90081215446
field stddev 10.37188014688
field min 0.018742909771
field max 36.380101957752
field sum 16343.441497022
field sqrsum 390670.0949721
attr "" ""
attr recordingmode stats
attr source packetDelay
attr title "Packet delay"
par Network.Users[13] typename "\"pecsn_project.User\""
par Network.Users[13] CQIdistribution "\"uniform\""
statistic Network.Users[13] throughputStat:stats
field count 700
field mean 11.1
field stddev 135.03048455685
field min 0
field max 2321
field sum 7770
field sqrsum 12831276
attr "" ""
attr recordingmode stats
attr source throughput
attr title Throughput
statistic Network.Users[13] packetsReceivedStat:stats
field count 700
field mean 1.3928571428571
field stddev 16.94588560788
field min 0
field max 291
field sum 975
field sqrsum 202085
attr "" ""
attr recordingmode stats
attr source packetsReceived
attr title "Packets received per timeslot"
statistic Network.Users[13] packetDelayStat:stats
field count 975
field mean 18.239215665836
field stddev 10.475904149948
field min 0.003164949629
field max 37.066420490421
field sum 17783.23527419
field sqrsum 431243.47239944
attr "" ""
attr recordingmode stats
attr source packetDelay
attr title "Packet delay"
par Network.Users[14] typename "\"pecsn_project.User\""
par Network.Users[14] CQIdistribution "\"uniform\""
statistic Network.Users[14] throughputStat:stats
field count 700
field mean 6.1157142857143
field stddev 112.37736362681
field min 0
field max 2322
field sum 4281
field sqrsum 8853623
attr "" ""
attr recordingmode stats
attr source throughput
attr title Throughput
statistic Network.Users[14] packetsReceivedStat:stats
field count 700
field mean 0.79428571428571
field stddev 14.544705743132
field min 0
field max 301
field sum 556
field sqrsum 148314
attr "" ""
attr recordingmode stats
attr source packetsReceived
attr title "Packets received per timeslot"
statistic Network.Users[14] packetDelayStat:stats
field count 556
field mean 26.253293920019
field stddev 7.2939837289156
field min 0.000665269584
field max 37.655126838448
field sum 14596.831419531
field sqrsum 412742.12580182
attr "" ""
attr recordingmode stats
attr source packetDelay
attr title "Packet delay"
par Network.Users[15] typename "\"pecsn_project.User\""
par Network.Users[15] CQIdistribution "\"uniform\""
statistic Network.Users[15] throughputStat:stats
field count 700
field mean 10.812857142857
field stddev 120.55834864564
field min 0
field max 2322
field sum 7569
field sqrsum 10241329
attr "" ""
attr recordingmode stats
attr source throughput
attr title Throughput
statistic Network.Users[15] packetsReceivedStat:stats
field count 700
field mean 1.3757142857143
field stddev 15.241320011194
field min 0
field max 282
field sum 963
field sqrsum 163701
attr "" ""
attr recordingmode stats
attr source packetsReceived
attr title "Packets received per timeslot"
statistic Network.Users[15] packetDelayStat:stats
field count 963
field mean 18.938287790702
field stddev 11.039841548318
field min 0.087654485506
field max 37.888605835042
field sum 18237.571142446
field sqrsum 462635.10445738
attr "" ""
attr recordingmode stats
attr source packetDelay
attr title "Packet delay"
par Network.Users[16] typename "\"pecsn_project.User\""
par Network.Users[16] CQIdistribution "\"uniform\""
statistic Network.Users[16] throughputStat:stats
field count 700
field mean 11.507142857143
field stddev 135.87895903442
field min 0
field max 2324
field sum 8055
field sqrsum 12998391
attr "" ""
attr recordingmode stats
attr source throughput
attr title Throughput
statistic Network.Users[16] packetsReceivedStat:stats
field count 700
field mean 1.41
field stddev 16.699709591163
field min 0
field max 299
field sum 987
field sqrsum 196329
attr "" ""
attr recordingmode stats
attr source packetsReceived
attr title "Packets received per timeslot"
statistic Network.Users[16] packetDelayStat:stats
field count 987
field mean 19.000809098816
field stddev 11.21235085933
field min 0.02745992879
field max 38.626345522224
field sum 18753.798580531
field sqrsum 480294.12313394
attr "" ""
attr recordingmode stats
attr source packetDelay
attr title "Packet delay"
par Network.Users[17] typename "\"pecsn_project.User\""
par Network.Users[17] CQIdistribution "\"uniform\""
statistic Network.Users[17] throughputStat:stats
field count 700
field mean 9.5042857142857
field stddev 109.77013951677
field min 0
field max 1795
field sum 6653
field sqrsum 8485821
attr "" ""
attr recordingmode stats
attr source throughput
attr title Throughput
statistic Network.Users[17] packetsReceivedStat:stats
field count 700
field mean 1.1714285714286
field stddev 13.505651260936
field min 0
field max 221
field sum 820
field sqrsum 128460
attr "" ""
attr recordingmode stats
attr source packetsReceived
attr title "Packets received per timeslot"
statistic Network.Users[17] packetDelayStat:stats
field count 820
field mean 24.128107286317
field stddev 9.5849249274412
field min 0.019358852777
field max 39.769168210467
field sum 19785.04797478
field sqrsum 552617.93382359
attr "" ""
attr recordingmode stats
attr source packetDelay
attr title "Packet delay"
par Network.Users[18] typename "\"pecsn_project.User\""
par Network.Users[18] CQIdistribution "\"uniform\""
statistic Network.Users[18] throughputStat:stats
field count 700
field mean 9.1042857142857
field stddev 110.35939070833
field min 0
field max 1795
field sum 6373
field sqrsum 8571279
attr "" ""
attr recordingmode stats
attr source throughput
attr title Throughput
statistic Network.Users[18] packetsReceivedStat:stats
field count 700
field mean 1.1614285714286
field stddev 14.014745891067
field min 0
field max 224
field sum 813
field sqrsum 138237
attr "" ""
attr recordingmode stats
attr source packetsReceived
attr title "Packets received per timeslot"
statistic Network.Users[18] packetDelayStat:stats
field count 813
field mean 25.701859334256
field stddev 9.1344343961793
field min 0.016612348102
field max 40.435225236573
field sum 20895.61163875
field sqrsum 604807.63913373
attr "" ""
attr recordingmode stats
attr source packetDelay
attr title "Packet delay"
par Network.Users[19] typename "\"pecsn_project.User\""
par Network.Users[19] CQIdistribution "\"uniform\""
statistic Network.Users[19] throughputStat:stats
field count 700
field mean 0.11714285714286
field stddev 2.951780890082
field min 0
field max 78
field sum 82
field sqrsum 6100
attr "" ""
attr recordingmode stats
attr source throughput
attr title Throughput
statistic Network.Users[19] packetsReceivedStat:stats
field count 700
field mean 0.015714285714286
field stddev 0.37979578666269
field min 0
field max 10
field sum 11
field sqrsum 101
attr "" ""
attr recordingmode stats
attr source packetsReceived
attr title "Packets received per timeslot"
statistic Network.Users[19] packetDelayStat:stats
field count 11
field mean 3.9342759817696
field stddev 12.323771534849
field min 0.039295538001
field max 41.090983024173
field sum 43.277035799466
field sqrsum 1689.0172509395
attr "" ""
attr recordingmode stats
attr source packetDelay
attr title "Packet delay"
par Network.Users[20] typename "\"pecsn_project.User\""
par Network.Users[20] CQIdistribution "\"uniform\""
statistic Network.Users[20] throughputStat:stats
field count 700
field mean 3.2714285714286
field stddev 52.188697308053
field min 0
field max 1242
field sum 2290
field sqrsum 1911330
attr "" ""
attr recordingmode stats
attr source throughput
attr title Throughput
statistic Network.Users[20] packetsReceivedStat:stats
field count 700
field mean 0.37571428571429
field stddev 6.1458416269121
field min 0
field max 149
field sum 263
field sqrsum 26501
attr "" ""
attr recordingmode stats
attr source packetsReceived
attr title "Packets received per timeslot"
statistic Network.Users[20] packetDelayStat:stats
field count 263
field mean 34.437111228488
field stddev 7.1940019144181
field min 0.024692078857
field max 41.142849709145
field sum 9056.9602530924
field sqrsum 325455.00747644
attr "" ""
attr recordingmode stats
attr source packetDelay
attr title "Packet delay"
par Network.Users[21] typename "\"pecsn_project.User\""
par Network.Users[21] CQIdistribution "\"uniform\""
statistic Network.Users[21] throughputStat:stats
field count 700
field mean 2.42
field stddev 41.566199677754
field min 0
field max 972
field sum 1694
field sqrsum 1211796
attr "" ""
attr recordingmode stats
attr source throughput
attr title Throughput
statistic Network.Users[21] packetsReceivedStat:stats
field count 700
field mean 0.29714285714286
field stddev 5.0167379762489
field min 0
field max 118
field sum 208
field sqrsum 17654
attr "" ""
attr recordingmode stats
attr source packetsReceived
attr title "Packets received per timeslot"
statistic Network.Users[21] packetDelayStat:stats
field count 208
field mean 36.690388281098
field stddev 7.1633241178648
field min 0.041746043136
field max 41.452773490869
field sum 7631.6007624685
field sqrsum 290628.23015173
attr "" ""
attr recordingmode stats
attr source packetDelay
attr title "Packet delay"
par Network.Users[22] typename "\"pecsn_project.User\""
par Network.Users[22] CQIdistribution "\"uniform\""
statistic Network.Users[22] throughputStat:stats
field count 700
field mean 0.83142857142857
field stddev 14.74388448045
field min 0
field max 370
field sum 582
field sqrsum 152434
attr "" ""
attr recordingmode stats
attr source throughput
attr title Throughput
statistic Network.Users[22] packetsReceivedStat:stats
field count 700
field mean 0.097142857142857
field stddev 1.6362289093951
field min 0
field max 40
field sum 68
field sqrsum 1878
attr "" ""
attr recordingmode stats
attr source packetsReceived
attr title "Packets received per timeslot"
statistic Network.Users[22] packetDelayStat:stats
field count 68
field mean 37.066298761612
field stddev 11.583398962109
field min 0.02021425442
field max 41.777788723036
field sum 2520.5083157896
field sqrsum 102415.64807572
attr "" ""
attr recordingmode stats
attr source packetDelay
attr title "Packet delay"
par Network.Users[23] typename "\"pecsn_project.User\""
par Network.Users[23] CQIdistribution "\"uniform\""
statistic Network.Users[23] throughputStat:stats
field count 700
field mean 8.8214285714286
field stddev 121.98647101615
field min 0
field max 2317
field sum 6175
field sqrsum 10456081
attr "" ""
attr recordingmode stats
attr source throughput
attr title Throughput
statistic Network.Users[23] packetsReceivedStat:stats
field count 700
field mean 1.1057142857143
field stddev 15.364069018314
field min 0
field max 286
field sum 774
field sqrsum 165858
attr "" ""
attr recordingmode stats
attr source packetsReceived
attr title "Packets received per timeslot"
statistic Network.Users[23] packetDelayStat:stats
field count 774
field mean 26.219160895488
field stddev 9.4261890978026
field min 0.078654794559
field max 42.042185260258
field sum 20293.630533108
field sqrsum 600765.36472268
attr "" ""
attr recordingmode stats
attr source packetDelay
attr title "Packet delay"
par Network.Users[24] typename "\"pecsn_project.User\""
par Network.Users[24] CQIdistribution "\"uniform\""
statistic Network.Users[24] throughputStat:stats
field count 700
field mean 0.21
field stddev 5.5560777532356
field min 0
field max 147
field sum 147
field sqrsum 21609
attr "" ""
attr recordingmode stats
attr source throughput
attr title Throughput
statistic Network.Users[24] packetsReceivedStat:stats
field count 700
field mean 0.025714285714286
field stddev 0.68033605141661
field min 0
field max 18
field sum 18
field sqrsum 324
attr "" ""
attr recordingmode stats
attr source packetsReceived
attr title "Packets received per timeslot"
statistic Network.Users[24] packetDelayStat:stats
field count 18
field mean 0.19528644888006
field stddev 0.11848120780054
field min 0.01334851257
field max 0.373732401227
field sum 3.515156079841
field sqrsum 0.92510489032314
attr "" ""
attr recordingmode stats
attr source packetDelay
attr title "Packet delay"
par Network.Users[25] typename "\"pecsn_project.User\""
par Network.Users[25] CQIdistribution "\"uniform\""
statistic Network.Users[25] throughputStat:stats
field count 700
field mean 6.8885714285714
field stddev 116.30209115537
field min 0
field max 2323
field sum 4822
field sqrsum 9488014
attr "" ""
attr recordingmode stats
attr source throughput
attr title Throughput
statistic Network.Users[25] packetsReceivedStat:stats
field count 700
field mean 0.86
field stddev 14.530727148823
field min 0
field max 296
field sum 602
field sqrsum 148106
attr "" ""
attr recordingmode stats
attr source packetsReceived
attr title "Packets received per timeslot"
statistic Network.Users[25] packetDelayStat:stats
field count 602
field mean 29.331640080066
field stddev 8.0952219940741
field min 0.084106868787
field max 42.393823717989
field sum 17657.6473282
field sqrsum 557312.86019065
attr "" ""
attr recordingmode stats
attr source packetDelay
attr title "Packet delay"
par Network.Users[26] typename "\"pecsn_project.User\""
par Network.Users[26] CQIdistribution "\"uniform\""
statistic Network.Users[26] throughputStat:stats
field count 700
field mean 0.13285714285714
field stddev 2.5397115754693
field min 0
field max 61
field sum 93
field sqrsum 4521
attr "" ""
attr recordingmode stats
attr source throughput
attr title Throughput
statistic Network.Users[26] packetsReceivedStat:stats
field count 700
field mean 0.018571428571429
field stddev 0.33990357007649
field min 0
field max 8
field sum 13
field sqrsum 81
attr "" ""
attr recordingmode stats
attr source packetsReceived
attr title "Packets received per timeslot"
statistic Network.Users[26] packetDelayStat:stats
field count 13
field mean 3.4460210627915
field stddev 11.793527173719
field min 0.021537847324
field max 42.695868750822
field sum 44.79827381629
field sqrsum 1823.4231935145
attr "" ""
attr recordingmode stats
attr source packetDelay
attr title "Packet delay"
par Network.Users[27] typename "\"pecsn_project.User\""
par Network.Users[27] CQIdistribution "\"uniform\""
statistic Network.Users[27] throughputStat:stats
field count 700
field mean 8.19
field stddev 99.128980083615
field min 0
field max 1799
field sum 5733
field sqrsum 6915715
attr "" ""
attr recordingmode stats
attr source throughput
attr title Throughput
statistic Network.Users[27] packetsReceivedStat:stats
field count 700
field mean 1.0257142857143
field stddev 12.394304909747
field min 0
field max 222
field sum 718
field sqrsum 108116
attr "" ""
attr recordingmode stats
attr source packetsReceived
attr title "Packets received per timeslot"
statistic Network.Users[27] packetDelayStat:stats
field count 718
field mean 28.5072160289
field stddev 8.3376193066464
field min 0.376005235594
field max 43.058627878724
field sum 20468.18110875
field sqrsum 633333.75780453
attr "" ""
attr recordingmode stats
attr source packetDelay
attr title "Packet delay"
par Network.Users[28] typename "\"pecsn_project.User\""
par Network.Users[28] CQIdistribution "\"uniform\""
statistic Network.Users[28] throughputStat:stats
field count 700
field mean 9.9085714285714
field stddev 114.467193597
field min 0
field max 1994
field sum 6936
field sqrsum 9227540
attr "" ""
attr recordingmode stats
attr source throughput
attr title Throughput
statistic Network.Users[28] packetsReceivedStat:stats
field count 700
field mean 1.2257142857143
field stddev 14.058142964461
field min 0
field max 244
field sum 858
field sqrsum 139196
attr "" ""
attr recordingmode stats
attr source packetsReceived
attr title "Packets received per timeslot"
statistic Network.Users[28] packetDelayStat:stats
field count 858
field mean 27.297050797435
field stddev 10.013847717797
field min 0.19416276787
field max 43.351749143956
field sum 23420.8695842
field sqrsum 725258.18098075
attr "" ""
attr recordingmode stats
attr source packetDelay
attr title "Packet delay"
par Network.Users[29] typename "\"pecsn_project.User\""
par Network.Users[29] CQIdistribution "\"uniform\""
statistic Network.Users[29] throughputStat:stats
field count 700
field mean 7.7028571428571
field stddev 116.860861438
field min 0
field max 2320
field sum 5392
field sqrsum 9587400
attr "" ""
attr recordingmode stats
attr source throughput
attr title Throughput
statistic Network.Users[29] packetsReceivedStat:stats
field count 700
field mean 0.98285714285714
field stddev 14.822931731941
field min 0
field max 297
field sum 688
field sqrsum 154260
attr "" ""
attr recordingmode stats
attr source packetsReceived
attr title "Packets received per timeslot"
statistic Network.Users[29] packetDelayStat:stats
field count 688
field mean 29.669169647162
field stddev 9.3081474841718
field min 0.000460862282
field max 43.982972672449
field sum 20412.388717248
field sqrsum 665141.40954217
attr "" ""
attr recordingmode stats
attr source packetDelay
attr title "Packet delay"
par Network.Users[30] typename "\"pecsn_project.User\""
par Network.Users[30] CQIdistribution "\"uniform\""
statistic Network.Users[30] throughputStat:stats
field count 700
field mean 0.15142857142857
field stddev 3.1541122807508
field min 0
field max 79
field sum 106
field sqrsum 6970
attr "" ""
attr recordingmode stats
attr source throughput
attr title Throughput
statistic Network.Users[30] packetsReceivedStat:stats
field count 700
field mean 0.025714285714286
field stddev 0.52619119288472
field min 0
field max 13
field sum 18
field sqrsum 194
attr "" ""
attr recordingmode stats
attr source packetsReceived
attr title "Packets received per timeslot"
statistic Network.Users[30] packetDelayStat:stats
field count 18
field mean 0.41333866982828
field stddev 0.21888617513492
field min 0.01252866377
field max 0.660121656515
field sum 7.440096056909
field sqrsum 3.8897690878657
attr "" ""
attr recordingmode stats
attr source packetDelay
attr title "Packet delay"
par Network.Users[31] typename "\"pecsn_project.User\""
par Network.Users[31] CQIdistribution "\"uniform\""
statistic Network.Users[31] throughputStat:stats
field count 700
field mean 3.7842857142857
field stddev 56.245558427637
field min 0
field max 1243
field sum 2649
field sqrsum 2221355
attr "" ""
attr recordingmode stats
attr source throughput
attr title Throughput
statistic Network.Users[31] packetsReceivedStat:stats
field count 700
field mean 0.47285714285714
field stddev 7.0052590387421
field min 0
field max 155
field sum 331
field sqrsum 34459
attr "" ""
attr recordingmode stats
attr source packetsReceived
attr title "Packets received per timeslot"
statistic Network.Users[31] packetDelayStat:stats
field count 331
field mean 35.532532235684
field stddev 10.398887688485
field min 0.025305263799
field max 44.392299318408
field sum 11761.268170011
field sqrsum 453592.8058855
attr "" ""
attr recordingmode stats
attr source packetDelay
attr title "Packet delay"
par Network.Users[32] typename "\"pecsn_project.User\""
par Network.Users[32] CQIdistribution "\"uniform\""
statistic Network.Users[32] throughputStat:stats
field count 700
field mean 13.285714285714
field stddev 126.37210794662
field min 0
field max 2323
field sum 9300
field sqrsum 11286524
attr "" ""
attr recordingmode stats
attr source throughput
attr title Throughput
statistic Network.Users[32] packetsReceivedStat:stats
field count 700
field mean 1.62
field stddev 15.538908661918
field min 0
field max 293
field sum 1134
field sqrsum 170616
attr "" ""
attr recordingmode stats
attr source packetsReceived
attr title "Packets received per timeslot"
statistic Network.Users[32] packetDelayStat:stats
field count 1134
field mean 22.267217332806
field stddev 12.868798651054
field min 0.022141312971
field max 44.648063169673
field sum 25251.024455402
field sqrsum 749901.62331574
attr "" ""
attr recordingmode stats
attr source packetDelay
attr title "Packet delay"
par Network.Users[33] typename "\"pecsn_project.User\""
par Network.Users[33] CQIdistribution "\"uniform\""
statistic Network.Users[33] throughputStat:stats
field count 700
field mean 6.9614285714286
field stddev 113.79971336477
field min 0
field max 2325
field sum 4873
field sqrsum 9086235
attr "" ""
attr recordingmode stats
attr source throughput
attr title Throughput
statistic Network.Users[33] packetsReceivedStat:stats
field count 700
field mean 0.89857142857143
field stddev 14.673840678065
field min 0
field max 301
field sum 629
field sqrsum 151075
attr "" ""
attr recordingmode stats
attr source packetsReceived
attr title "Packets received per timeslot"
statistic Network.Users[33] packetDelayStat:stats
field count 629
field mean 32.498536913393
field stddev 9.1288346439026
field min 0.059425063756
field max 45.621678648388
field sum 20441.579718524
field sqrsum 716656.20363871
attr "" ""
attr recordingmode stats
attr source packetDelay
attr title "Packet delay"
par Network.Users[34] typename "\"pecsn_project.User\""
par Network.Users[34] CQIdistribution "\"uniform\""
statistic Network.Users[34] throughputStat:stats
field count 700
field mean 3.7628571428571
field stddev 76.399322086568
field min 0
field max 1993
field sum 2634
field sqrsum 4089874
attr "" ""
attr recordingmode stats
attr source throughput
attr title Throughput
statistic Network.Users[34] packetsReceivedStat:stats
field count 700
field mean 0.48571428571429
field stddev 9.6671987281075
field min 0
field max 252
field sum 340
field sqrsum 65490
attr "" ""
attr recordingmode stats
attr source packetsReceived
attr title "Packets received per timeslot"
statistic Network.Users[34] packetDelayStat:stats
field count 340
field mean 37.972609352103
field stddev 8.5998283355398
field min 0.015536796451
field max 45.974723839615
field sum 12910.687179715
field sqrsum 515323.91981138
attr "" ""
attr recordingmode stats
attr source packetDelay
attr title "Packet delay"
par Network.Users[35] typename "\"pecsn_project.User\""
par Network.Users[35] CQIdistribution "\"uniform\""
statistic Network.Users[35] throughputStat:stats
field count 700
field mean 13.577142857143
field stddev 146.50286161392
field min 0
field max 2315
field sum 9504
field sqrsum 15131736
attr "" ""
attr recordingmode stats
attr source throughput
attr title Throughput
statistic Network.Users[35] packetsReceivedStat:stats
field count 700
field mean 1.7
field stddev 18.293779675649
field min 0
field max 282
field sum 1190
field sqrsum 235952
attr "" ""
attr recordingmode stats
attr source packetsReceived
attr title "Packets received per timeslot"
statistic Network.Users[35] packetDelayStat:stats
field count 1190
field mean 22.617255608395
field stddev 13.610663899852
field min 0.066795705764
field max 46.356698327731
field sum 26914.53417399
field sqrsum 828995.35325799
attr "" ""
attr recordingmode stats
attr source packetDelay
attr title "Packet delay"
par Network.Users[36] typename "\"pecsn_project.User\""
par Network.Users[36] CQIdistribution "\"uniform\""
statistic Network.Users[36] throughputStat:stats
field count 700
field mean 14.847142857143
field stddev 156.02159824572
field min 0
field max 2316
field sum 10393
field sqrsum 17169881
attr "" ""
attr recordingmode stats
attr source throughput
attr title Throughput
statistic Network.Users[36] packetsReceivedStat:stats
field count 700
field mean 1.8014285714286
field stddev 18.909898497598
field min 0
field max 272
field sum 1261
field sqrsum 252223
attr "" ""
attr recordingmode stats
attr source packetsReceived
attr title "Packets received per timeslot"
statistic Network.Users[36] packetDelayStat:stats
field count 1261
field mean 23.095444114271
field stddev 13.793386460174
field min 0.032585795442
field max 47.382660761166
field sum 29123.355028096
field sqrsum 912341.2811215
attr "" ""
attr recordingmode stats
attr source packetDelay
attr title "Packet delay"
par Network.Users[37] typename "\"pecsn_project.User\""
par Network.Users[37] CQIdistribution "\"uniform\""
statistic Network.Users[37] throughputStat:stats
field count 700
field mean 14.445714285714
field stddev 137.99289306586
field min 0
field max 2056
field sum 10112
field sqrsum 13456460
attr "" ""
attr recordingmode stats
attr source throughput
attr title Throughput
statistic Network.Users[37] packetsReceivedStat:stats
field count 700
field mean 1.8042857142857
field stddev 17.491309395044
field min 0
field max 265
field sum 1263
field sqrsum 216135
attr "" ""
attr recordingmode stats
attr source packetsReceived
attr title "Packets received per timeslot"
statistic Network.Users[37] packetDelayStat:stats
field count 1263
field mean 23.870061413513
field stddev 14.139119809887
field min 0.001271859883
field max 48.164587300814
field sum 30147.887565267
field sqrsum 971924.29042654
attr "" ""
attr recordingmode stats
attr source packetDelay
attr title "Packet delay"
par Network.Users[38] typename "\"pecsn_project.User\""
par Network.Users[38] CQIdistribution "\"uniform\""
statistic Network.Users[38] throughputStat:stats
field count 700
field mean 14.668571428571
field stddev 150.83351208221
field min 0
field max 2325
field sum 10268
field sqrsum 16053390
attr "" ""
attr recordingmode stats
attr source throughput
attr title Throughput
statistic Network.Users[38] packetsReceivedStat:stats
field count 700
field mean 1.8242857142857
field stddev 18.829533735353
field min 0
field max 278
field sum 1277
field sqrsum 250161
attr "" ""
attr recordingmode stats
attr source packetsReceived
attr title "Packets received per timeslot"
statistic Network.Users[38] packetDelayStat:stats
field count 1277
field mean 23.186041055211
field stddev 14.687517078806
field min 0.01859065932
field max 49.276385208159
field sum 29608.574427504
field sqrsum 961768.37179408
attr "" ""
attr recordingmode stats
attr source packetDelay
attr title "Packet delay"
par Network.Users[39] typename "\"pecsn_project.User\""
par Network.Users[39] CQIdistribution "\"uniform\""
statistic Network.Users[39] throughputStat:stats
field count 700
field mean 0.50142857142857
field stddev 10.338269984985
field min 0
field max 257
field sum 351
field sqrsum 74885
attr "" ""
attr recordingmode stats
attr source throughput
attr title Throughput
statistic Network.Users[39] packetsReceivedStat:stats
field count 700
field mean 0.061428571428571
field stddev 1.2558068677249
field min 0
field max 31
field sum 43
field sqrsum 1105
attr "" ""
attr recordingmode stats
attr source packetsReceived
attr title "Packets received per timeslot"
statistic Network.Users[39] packetDelayStat:stats
field count 43
field mean 14.323457804238
field stddev 22.36580206399
field min 0.017393037271
field max 50.184863758181
field sum 615.90868558222
field sqrsum 29831.564351756
attr "" ""
attr recordingmode stats
attr source packetDelay
attr title "Packet delay"
par Network.Users[40] typename "\"pecsn_project.User\""
par Network.Users[40] CQIdistribution "\"uniform\""
statistic Network.Users[40] throughputStat:stats
field count 700
field mean 9.26
field stddev 113.18737980476
field min 0
field max 2316
field sum 6482
field sqrsum 9015180
attr "" ""
attr recordingmode stats
attr source throughput
attr title Throughput
statistic Network.Users[40] packetsReceivedStat:stats
field count 700
field mean 1.1542857142857
field stddev 13.932462126978
field min 0
field max 283
field sum 808
field sqrsum 136618
attr "" ""
attr recordingmode stats
attr source packetsReceived
attr title "Packets received per timeslot"
statistic Network.Users[40] packetDelayStat:stats
field count 808
field mean 33.383692671099
field stddev 10.27505756227
field min 0.066755353449
field max 50.067971970238
field sum 26974.023678248
field sqrsum 985693.00055933
attr "" ""
attr recordingmode stats
attr source packetDelay
attr title "Packet delay"
par Network.Users[41] typename "\"pecsn_project.User\""
par Network.Users[41] CQIdistribution "\"uniform\""
statistic Network.Users[41] throughputStat:stats
field count 700
field mean 13.974285714286
field stddev 143.40162163972
field min 0
field max 2322
field sum 9782
field sqrsum 14510950
attr "" ""
attr recordingmode stats
attr source throughput
attr title Throughput
statistic Network.Users[41] packetsReceivedStat:stats
field count 700
field mean 1.7471428571429
field stddev 18.02232935004
field min 0
field max 298
field sum 1223
field sqrsum 229175
attr "" ""
attr recordingmode stats
attr source packetsReceived
attr title "Packets received per timeslot"
statistic Network.Users[41] packetDelayStat:stats
field count 1223
field mean 25.709047315998
field stddev 14.841881866203
field min 0.001026611976
field max 50.687213291301
field sum 31442.164867465
field sqrsum 1077532.0451527
attr "" ""
attr recordingmode stats
attr source packetDelay
attr title "Packet delay"
par Network.Users[42] typename "\"pecsn_project.User\""
par Network.Users[42] CQIdistribution "\"uniform\""
statistic Network.Users[42] throughputStat:stats
field count 700
field mean 14.917142857143
field stddev 161.61197632946
field min 0
field max 2320
field sum 10442
field sqrsum 18412548
attr "" ""
attr recordingmode stats
attr source throughput
attr title Throughput
statistic Network.Users[42] packetsReceivedStat:stats
field count 700
field mean 1.8757142857143
field stddev 20.349105745444
field min 0
field max 303
field sum 1313
field sqrsum 291909
attr "" ""
attr recordingmode stats
attr source packetsReceived
attr title "Packets received per timeslot"
statistic Network.Users[42] packetDelayStat:stats
field count 1313
field mean 24.551599307032
field stddev 15.366757779199
field min 0.02593502339
field max 51.541766955631
field sum 32236.249890133
field sqrsum 1101263.5554376
attr "" ""
attr recordingmode stats
attr source packetDelay
attr title "Packet delay"
par Network.Users[43] typename "\"pecsn_project.User\""
par Network.Users[43] CQIdistribution "\"uniform\""
statistic Network.Users[43] throughputStat:stats
field count 700
field mean 1.1771428571429
field stddev 16.832764659259
field min 0
field max 290
field sum 824
field sqrsum 199026
attr "" ""
attr recordingmode stats
attr source throughput
attr title Throughput
statistic Network.Users[43] packetsReceivedStat:stats
field count 700
field mean 0.14571428571429
field stddev 2.0686145498214
field min 0
field max 37
field sum 102
field sqrsum 3006
attr "" ""
attr recordingmode stats
attr source packetsReceived
attr title "Packets received per timeslot"
statistic Network.Users[43] packetDelayStat:stats
field count 102
field mean 32.802322106894
field stddev 24.438670046897
field min 0.070728809985
field max 52.284203169869
field sum 3345.8368549032
field sqrsum 170073.32619142
attr "" ""
attr recordingmode stats
attr source packetDelay
attr title "Packet delay"
par Network.Users[44] typename "\"pecsn_project.User\""
par Network.Users[44] CQIdistribution "\"uniform\""
statistic Network.Users[44] throughputStat:stats
field count 700
field mean 0.38142857142857
field stddev 7.5521229875207
field min 0
field max 180
field sum 267
field sqrsum 39969
attr "" ""
attr recordingmode stats
attr source throughput
attr title Throughput
statistic Network.Users[44] packetsReceivedStat:stats
field count 700
field mean 0.051428571428571
field stddev 1.0317898191697
field min 0
field max 25
field sum 36
field sqrsum 746
attr "" ""
attr recordingmode stats
attr source packetsReceived
attr title "Packets received per timeslot"
statistic Network.Users[44] packetDelayStat:stats
field count 36
field mean 0.58927264084858
field stddev 0.36343259766824
field min 0.052252031349
field max 1.186262191296
field sum 21.213815070549
field sqrsum 17.123634685772
attr "" ""
attr recordingmode stats
attr source packetDelay
attr title "Packet delay"
par Network.Users[45] typename "\"pecsn_project.User\""
par Network.Users[45] CQIdistribution "\"uniform\""
statistic Network.Users[45] throughputStat:stats
field count 700
field mean 9.7257142857143
field stddev 114.65051290928
field min 0
field max 1997
field sum 6808
field sqrsum 9254386
attr "" ""
attr recordingmode stats
attr source throughput
attr title Throughput
statistic Network.Users[45] packetsReceivedStat:stats
field count 700
field mean 1.2171428571429
field stddev 14.385306557659
field min 0
field max 261
field sum 852
field sqrsum 145686
attr "" ""
attr recordingmode stats
attr source packetsReceived
attr title "Packets received per timeslot"
statistic Network.Users[45] packetDelayStat:stats
field count 852
field mean 35.072121940988
field stddev 11.187293923315
field min 0.020486441063
field max 52.313830164041
field sum 29881.447893722
field sqrsum 1154513.1533748
attr "" ""
attr recordingmode stats
attr source packetDelay
attr title "Packet delay"
par Network.Users[46] typename "\"pecsn_project.User\""
par Network.Users[46] CQIdistribution "\"uniform\""
statistic Network.Users[46] throughputStat:stats
field count 700
field mean 3.9385714285714
field stddev 60.743890684307
field min 0
field max 1242
field sum 2757
field sqrsum 2590043
attr "" ""
attr recordingmode stats
attr source throughput
attr title Throughput
statistic Network.Users[46] packetsReceivedStat:stats
field count 700
field mean 0.50428571428571
field stddev 7.8895257651845
field min 0
field max 168
field sum 353
field sqrsum 43687
attr "" ""
attr recordingmode stats
attr source packetsReceived
attr title "Packets received per timeslot"
statistic Network.Users[46] packetDelayStat:stats
field count 353
field mean 42.500307885842
field stddev 13.467393673351
field min 0.000451407736
field max 52.999784435902
field sum 15002.608683702
field sqrsum 701457.9718564
attr "" ""
attr recordingmode stats
attr source packetDelay
attr title "Packet delay"
par Network.Users[47] typename "\"pecsn_project.User\""
par Network.Users[47] CQIdistribution "\"uniform\""
statistic Network.Users[47] throughputStat:stats
field count 700
field mean 6.8057142857143
field stddev 102.9737078902
field min 0
field max 1991
field sum 4764
field sqrsum 7444328
attr "" ""
attr recordingmode stats
attr source throughput
attr title Throughput
statistic Network.Users[47] packetsReceivedStat:stats
field count 700
field mean 0.88
field stddev 13.233779987633
field min 0
field max 247
field sum 616
field sqrsum 122960
attr "" ""
attr recordingmode stats
attr source packetsReceived
attr title "Packets received per timeslot"
statistic Network.Users[47] packetDelayStat:stats
field count 616
field mean 39.768847078557
field stddev 11.543596538969
field min 0.080095340828
field max 53.240644973012
field sum 24497.609800391
field sqrsum 1056193.2898904
attr "" ""
attr recordingmode stats
attr source packetDelay
attr title "Packet delay"
par Network.Users[48] typename "\"pecsn_project.User\""
par Network.Users[48] CQIdistribution "\"uniform\""
statistic Network.Users[48] throughputStat:stats
field count 700
field mean 10.428571428571
field stddev 120.85163599871
field min 0
field max 2318
field sum 7300
field sqrsum 10285106
attr "" ""
attr recordingmode stats
attr source throughput
attr title Throughput
statistic Network.Users[48] packetsReceivedStat:stats
field count 700
field mean 1.3228571428571
field stddev 15.192754573774
field min 0
field max 290
field sum 926
field sqrsum 162568
attr "" ""
attr recordingmode stats
attr source packetsReceived
attr title "Packets received per timeslot"
statistic Network.Users[48] packetDelayStat:stats
field count 926
field mean 34.841214853046
field stddev 11.697302821787
field min 0.114346883989
field max 53.870063270743
field sum 32262.964953921
field sqrsum 1250645.7700626
attr "" ""
attr recordingmode stats
attr source packetDelay
attr title "Packet delay"
par Network.Users[49] typename "\"pecsn_project.User\""
par Network.Users[49] CQIdistribution "\"uniform\""
statistic Network.Users[49] throughputStat:stats
field count 700
field mean 16.237142857143
field stddev 152.26817616936
field min 0
field max 2321
field sum 11366
field sqrsum 16391284
attr "" ""
attr recordingmode stats
attr source throughput
attr title Throughput
statistic Network.Users[49] packetsReceivedStat:stats
field count 700
field mean 2.1114285714286
field stddev 19.751434948014
field min 0
field max 297
field sum 1478
field sqrsum 275814
attr "" ""
attr recordingmode stats
attr source packetsReceived
attr title "Packets received per timeslot"
statistic Network.Users[49] packetDelayStat:stats
field count 1478
field mean 25.987533889075
field stddev 16.375482676269
field min 0.010129329556
field max 54.488937622251
field sum 38409.575088052
field sqrsum 1394237.1856306
attr "" ""
attr recordingmode stats
attr source packetDelay
attr title "Packet delay"
par Network.Users[50] typename "\"pecsn_project.User\""
par Network.Users[50] CQIdistribution "\"uniform\""
statistic Network.Users[50] throughputStat:stats
field count 700
field mean 17.238571428571
field stddev 170.2615725526
field min 0
field max 2320
field sum 12067
field sqrsum 20471331
attr "" ""
attr recordingmode stats
attr source throughput
attr title Throughput
statistic Network.Users[50] packetsReceivedStat:stats
field count 700
field mean 2.1585714285714
field stddev 21.354940279737
field min 0
field max 290
field sum 1511
field sqrsum 322029
attr "" ""
attr recordingmode stats
attr source packetsReceived
attr title "Packets received per timeslot"
statistic Network.Users[50] packetDelayStat:stats
field count 1511
field mean 26.809821520716
field stddev 16.485877861457
field min 0.006956272433
field max 55.488120282784
field sum 40509.640317802
field sqrsum 1496450.3217716
attr "" ""
attr recordingmode stats
attr source packetDelay
attr title "Packet delay"
par Network.Users[51] typename "\"pecsn_project.User\""
par Network.Users[51] CQIdistribution "\"uniform\""
statistic Network.Users[51] throughputStat:stats
field count 700
field mean 0.9
field stddev 12.510539190781
field min 0
field max 207
field sum 630
field sqrsum 109970
attr "" ""
attr recordingmode stats
attr source throughput
attr title Throughput
statistic Network.Users[51] packetsReceivedStat:stats
field count 700
field mean 0.10571428571429
field stddev 1.5035376228085
field min 0
field max 25
field sum 74
field sqrsum 1588
attr "" ""
attr recordingmode stats
attr source packetsReceived
attr title "Packets received per timeslot"
statistic Network.Users[51] packetDelayStat:stats
field count 74
field mean 24.559796914901
field stddev 27.368585999317
field min 0.053108209496
field max 56.382264489758
field sum 1817.4249717027
field sqrsum 99315.471684036
attr "" ""
attr recordingmode stats
attr source packetDelay
attr title "Packet delay"
par Network.Users[52] typename "\"pecsn_project.User\""
par Network.Users[52] CQIdistribution "\"uniform\""
statistic Network.Users[52] throughputStat:stats
field count 700
field mean 5.7857142857143
field stddev 93.30518063918
field min 0
field max 2325
field sum 4050
field sqrsum 6108826
attr "" ""
attr recordingmode stats
attr source throughput
attr title Throughput
statistic Network.Users[52] packetsReceivedStat:stats
field count 700
field mean 0.70285714285714
field stddev 11.434718252962
field min 0
field max 286
field sum 492
field sqrsum 91742
attr "" ""
attr recordingmode stats
attr source packetsReceived
attr title "Packets received per timeslot"
statistic Network.Users[52] packetDelayStat:stats
field count 492
field mean 43.43517461079
field stddev 13.371620064384
field min 0.010864916612
field max 56.367650493254
field sum 21370.105908509
field sqrsum 1016005.191152
attr "" ""
attr recordingmode stats
attr source packetDelay
attr title "Packet delay"
par Network.Users[53] typename "\"pecsn_project.User\""
par Network.Users[53] CQIdistribution "\"uniform\""
statistic Network.Users[53] throughputStat:stats
field count 700
field mean 0.62428571428571
field stddev 11.454093678984
field min 0
field max 283
field sum 437
field sqrsum 91979
attr "" ""
attr recordingmode stats
attr source throughput
attr title Throughput
statistic Network.Users[53] packetsReceivedStat:stats
field count 700
field mean 0.087142857142857
field stddev 1.6459445482632
field min 0
field max 41
field sum 61
field sqrsum 1899
attr "" ""
attr recordingmode stats
attr source packetsReceived
attr title "Packets received per timeslot"
statistic Network.Users[53] packetDelayStat:stats
field count 61
field mean 19.157074425232
field stddev 26.239173546301
field min 0.094593176676
field max 56.790894465472
field sum 1168.5815399392
field sqrsum 63696.257236142
attr "" ""
attr recordingmode stats
attr source packetDelay
attr title "Packet delay"
par Network.Users[54] typename "\"pecsn_project.User\""
par Network.Users[54] CQIdistribution "\"uniform\""
statistic Network.Users[54] throughputStat:stats
field count 700
field mean 0.89285714285714
field stddev 16.261585032281
field min 0
field max 397
field sum 625
field sqrsum 185401
attr "" ""
attr recordingmode stats
attr source throughput
attr title Throughput
statistic Network.Users[54] packetsReceivedStat:stats
field count 700
field mean 0.10142857142857
field stddev 1.8428218128195
field min 0
field max 45
field sum 71
field sqrsum 2381
attr "" ""
attr recordingmode stats
attr source packetsReceived
attr title "Packets received per timeslot"
statistic Network.Users[54] packetDelayStat:stats
field count 71
field mean 21.194695411617
field stddev 26.902311847304
field min 0.088988626728
field max 56.853490321649
field sum 1504.8233742248
field sqrsum 82555.679856047
attr "" ""
attr recordingmode stats
attr source packetDelay
attr title "Packet delay"
par Network.Users[55] typename "\"pecsn_project.User\""
par Network.Users[55] CQIdistribution "\"uniform\""
statistic Network.Users[55] throughputStat:stats
field count 700
field mean 13.315714285714
field stddev 129.56985746862
field min 0
field max 1797
field sum 9321
field sqrsum 11859171
attr "" ""
attr recordingmode stats
attr source throughput
attr title Throughput
statistic Network.Users[55] packetsReceivedStat:stats
field count 700
field mean 1.6885714285714
field stddev 16.466035992427
field min 0
field max 218
field sum 1182
field sqrsum 191516
attr "" ""
attr recordingmode stats
attr source packetsReceived
attr title "Packets received per timeslot"
statistic Network.Users[55] packetDelayStat:stats
field count 1182
field mean 32.253063653598
field stddev 14.394470826422
field min 0.080648682776
field max 56.950368012655
field sum 38123.121238553
field sqrsum 1474291.589411
attr "" ""
attr recordingmode stats
attr source packetDelay
attr title "Packet delay"
par Network.Users[56] typename "\"pecsn_project.User\""
par Network.Users[56] CQIdistribution "\"uniform\""
statistic Network.Users[56] throughputStat:stats
field count 700
field mean 9.25
field stddev 123.6020498948
field min 0
field max 2321
field sum 6475
field sqrsum 10738843
attr "" ""
attr recordingmode stats
attr source throughput
attr title Throughput
statistic Network.Users[56] packetsReceivedStat:stats
field count 700
field mean 1.0914285714286
field stddev 14.667616787314
field min 0
field max 285
field sum 764
field sqrsum 151216
attr "" ""
attr recordingmode stats
attr source packetsReceived
attr title "Packets received per timeslot"
statistic Network.Users[56] packetDelayStat:stats
field count 764
field mean 41.356261088452
field stddev 13.323411324247
field min 0.005933883763
field max 57.857559206923
field sum 31596.183471577
field sqrsum 1442142.6527966
attr "" ""
attr recordingmode stats
attr source packetDelay
attr title "Packet delay"
par Network.Users[57] typename "\"pecsn_project.User\""
par Network.Users[57] CQIdistribution "\"uniform\""
statistic Network.Users[57] throughputStat:stats
field count 700
field mean 14.855714285714
field stddev 149.39761939116
field min 0
field max 2320
field sum 10399
field sqrsum 15755919
attr "" ""
attr recordingmode stats
attr source throughput
attr title Throughput
statistic Network.Users[57] packetsReceivedStat:stats
field count 700
field mean 1.8871428571429
field stddev 18.785594132306
field min 0
field max 277
field sum 1321
field sqrsum 249169
attr "" ""
attr recordingmode stats
attr source packetsReceived
attr title "Packets received per timeslot"
statistic Network.Users[57] packetDelayStat:stats
field count 1321
field mean 34.005403095177
field stddev 15.031350087879
field min 1.34772455567
field max 59.841664842397
field sum 44921.137488728
field sqrsum 1825804.148611
attr "" ""
attr recordingmode stats
attr source packetDelay
attr title "Packet delay"
par Network.Users[58] typename "\"pecsn_project.User\""
par Network.Users[58] CQIdistribution "\"uniform\""
statistic Network.Users[58] throughputStat:stats
field count 700
field mean 4.7728571428571
field stddev 90.333168767191
field min 0
field max 2323
field sum 3341
field sqrsum 5719843
attr "" ""
attr recordingmode stats
attr source throughput
attr title Throughput
statistic Network.Users[58] packetsReceivedStat:stats
field count 700
field mean 0.57285714285714
field stddev 10.54788687051
field min 0
field max 270
field sum 401
field sqrsum 77999
attr "" ""
attr recordingmode stats
attr source packetsReceived
attr title "Packets received per timeslot"
statistic Network.Users[58] packetDelayStat:stats
field count 401
field mean 47.606617281154
field stddev 17.364468909379
field min 0.052494350492
field max 59.379092870797
field sum 19090.253529743
field sqrsum 1029432.3057926
attr "" ""
attr recordingmode stats
attr source packetDelay
attr title "Packet delay"
par Network.Users[59] typename "\"pecsn_project.User\""
par Network.Users[59] CQIdistribution "\"uniform\""
statistic Network.Users[59] throughputStat:stats
field count 700
field mean 17.681428571429
field stddev 176.00890843697
field min 0
field max 2319
field sum 12377
field sqrsum 21873259
attr "" ""
attr recordingmode stats
attr source throughput
attr title Throughput
statistic Network.Users[59] packetsReceivedStat:stats
field count 700
field mean 2.2057142857143
field stddev 21.793292701774
field min 0
field max 293
field sum 1544
field sqrsum 335394
attr "" ""
attr recordingmode stats
attr source packetsReceived
attr title "Packets received per timeslot"
statistic Network.Users[59] packetDelayStat:stats
field count 1544
field mean 29.150105785352
field stddev 17.390141066619
field min 0.012223719409
field max 59.668948220334
field sum 45007.763332583
field sqrsum 1778610.5030538
attr "" ""
attr recordingmode stats
attr source packetDelay
attr title "Packet delay"
par Network.Users[60] typename "\"pecsn_project.User\""
par Network.Users[60] CQIdistribution "\"uniform\""
statistic Network.Users[60] throughputStat:stats
field count 700
field mean 11.665714285714
field stddev 119.69619253791
field min 0
field max 1798
field sum 8166
field sqrsum 10109960
attr "" ""
attr recordingmode stats
attr source throughput
attr title Throughput
statistic Network.Users[60] packetsReceivedStat:stats
field count 700
field mean 1.4414285714286
field stddev 14.717103349623
field min 0
field max 231
field sum 1009
field sqrsum 152853
attr "" ""
attr recordingmode stats
attr source packetsReceived
attr title "Packets received per timeslot"
statistic Network.Users[60] packetDelayStat:stats
field count 1009
field mean 39.283206312304
field stddev 14.742189959466
field min 0.001190316608
field max 60.551198723016
field sum 39636.755169115
field sqrsum 1776129.6529781
attr "" ""
attr recordingmode stats
attr source packetDelay
attr title "Packet delay"
par Network.Users[61] typename "\"pecsn_project.User\""
par Network.Users[61] CQIdistribution "\"uniform\""
statistic Network.Users[61] throughputStat:stats
field count 700
field mean 12.388571428571
field stddev 129.80362800573
field min 0
field max 1793
field sum 8672
field sqrsum 11884872
attr "" ""
attr recordingmode stats
attr source throughput
attr title Throughput
statistic Network.Users[61] packetsReceivedStat:stats
field count 700
field mean 1.5728571428571
field stddev 16.53873436253
field min 0
field max 230
field sum 1101
field sqrsum 192929
attr "" ""
attr recordingmode stats
attr source packetsReceived
attr title "Packets received per timeslot"
statistic Network.Users[61] packetDelayStat:stats
field count 1101
field mean 39.034526907371
field stddev 14.590363392501
field min 0.000162376889
field max 61.634715361979
field sum 42977.014125015
field sqrsum 1911753.9885791
attr "" ""
attr recordingmode stats
attr source packetDelay
attr title "Packet delay"
par Network.Users[62] typename "\"pecsn_project.User\""
par Network.Users[62] CQIdistribution "\"uniform\""
statistic Network.Users[62] throughputStat:stats
field count 700
field mean 15.857142857143
field stddev 163.48974021738
field min 0
field max 2324
field sum 11100
field sqrsum 18859512
attr "" ""
attr recordingmode stats
attr source throughput
attr title Throughput
statistic Network.Users[62] packetsReceivedStat:stats
field count 700
field mean 1.96
field stddev 20.278493085809
field min 0
field max 289
field sum 1372
field sqrsum 290130
attr "" ""
attr recordingmode stats
attr source packetsReceived
attr title "Packets received per timeslot"
statistic Network.Users[62] packetDelayStat:stats
field count 1372
field mean 35.067266887207
field stddev 16.102861383209
field min 0.047516066498
field max 62.297977527615
field sum 48112.290169248
field sqrsum 2042669.7603403
attr "" ""
attr recordingmode stats
attr source packetDelay
attr title "Packet delay"
par Network.Users[63] typename "\"pecsn_project.User\""
par Network.Users[63] CQIdistribution "\"uniform\""
statistic Network.Users[63] throughputStat:stats
field count 700
field mean 1.3242857142857
field stddev 20.854952004122
field min 0
field max 399
field sum 927
field sqrsum 305243
attr "" ""
attr recordingmode stats
attr source throughput
attr title Throughput
statistic Network.Users[63] packetsReceivedStat:stats
field count 700
field mean 0.15428571428571
field stddev 2.48294242092
field min 0
field max 50
field sum 108
field sqrsum 4326
attr "" ""
attr recordingmode stats
attr source packetsReceived
attr title "Packets received per timeslot"
statistic Network.Users[63] packetDelayStat:stats
field count 108
field mean 33.860138759927
field stddev 30.586844051664
field min 0.148384644382
field max 63.195489559428
field sum 3656.8949860722
field sqrsum 223927.35976625
attr "" ""
attr recordingmode stats
attr source packetDelay
attr title "Packet delay"
par Network.Users[64] typename "\"pecsn_project.User\""
par Network.Users[64] CQIdistribution "\"uniform\""
statistic Network.Users[64] throughputStat:stats
field count 700
field mean 0.63428571428571
field stddev 11.945535505629
field min 0
field max 249
field sum 444
field sqrsum 100026
attr "" ""
attr recordingmode stats
attr source throughput
attr title Throughput
statistic Network.Users[64] packetsReceivedStat:stats
field count 700
field mean 0.082857142857143
field stddev 1.5936184816679
field min 0
field max 36
field sum 58
field sqrsum 1780
attr "" ""
attr recordingmode stats
attr source packetsReceived
attr title "Packets received per timeslot"
statistic Network.Users[64] packetDelayStat:stats
field count 58
field mean 1.1031666698562
field stddev 0.66004124979714
field min 0.043125307611
field max 2.140072341886
field sum 63.983666851659
field sqrsum 95.416952417658
attr "" ""
attr recordingmode stats
attr source packetDelay
attr title "Packet delay"
par Network.Users[65] typename "\"pecsn_project.User\""
par Network.Users[65] CQIdistribution "\"uniform\""
statistic Network.Users[65] throughputStat:stats
field count 700
field mean 18.657142857143
field stddev 171.13892537963
field min 0
field max 2321
field sum 13060
field sqrsum 20716346
attr "" ""
attr recordingmode stats
attr source throughput
attr title Throughput
statistic Network.Users[65] packetsReceivedStat:stats
field count 700
field mean 2.3328571428571
field stddev 21.497228230213
field min 0
field max 294
field sum 1633
field sqrsum 326839
attr "" ""
attr recordingmode stats
attr source packetsReceived
attr title "Packets received per timeslot"
statistic Network.Users[65] packetDelayStat:stats
field count 1633
field mean 30.18199891744
field stddev 18.469541277004
field min 0.002539894061
field max 63.129245170784
field sum 49287.20423218
field sqrsum 2044300.6393115
attr "" ""
attr recordingmode stats
attr source packetDelay
attr title "Packet delay"
par Network.Users[66] typename "\"pecsn_project.User\""
par Network.Users[66] CQIdistribution "\"uniform\""
statistic Network.Users[66] throughputStat:stats
field count 700
field mean 18.944285714286
field stddev 180.5356234672
field min 0
field max 2323
field sum 13261
field sqrsum 23033805
attr "" ""
attr recordingmode stats
attr source throughput
attr title Throughput
statistic Network.Users[66] packetsReceivedStat:stats
field count 700
field mean 2.3257142857143
field stddev 21.964131807137
field min 0
field max 281
field sum 1628
field sqrsum 341000
attr "" ""
attr recordingmode stats
attr source packetsReceived
attr title "Packets received per timeslot"
statistic Network.Users[66] packetDelayStat:stats
field count 1628
field mean 31.471969396512
field stddev 19.09056888077
field min 0.176703315241
field max 64.551990608357
field sum 51236.366177522
field sqrsum 2205469.2057789
attr "" ""
attr recordingmode stats
attr source packetDelay
attr title "Packet delay"
par Network.Users[67] typename "\"pecsn_project.User\""
par Network.Users[67] CQIdistribution "\"uniform\""
statistic Network.Users[67] throughputStat:stats
field count 700
field mean 18.998571428571
field stddev 187.84787851585
field min 0
field max 2324
field sum 13299
field sqrsum 24918153
attr "" ""
attr recordingmode stats
attr source throughput
attr title Throughput
statistic Network.Users[67] packetsReceivedStat:stats
field count 700
field mean 2.3785714285714
field stddev 23.541540266685
field min 0
field max 298
field sum 1665
field sqrsum 391349
attr "" ""
attr recordingmode stats
attr source packetsReceived
attr title "Packets received per timeslot"
statistic Network.Users[67] packetDelayStat:stats
field count 1665
field mean 31.86171296321
field stddev 19.593051272709
field min 0.084259985801
field max 64.967291894591
field sum 53049.752083745
field sqrsum 2329045.036865
attr "" ""
attr recordingmode stats
attr source packetDelay
attr title "Packet delay"
par Network.Users[68] typename "\"pecsn_project.User\""
par Network.Users[68] CQIdistribution "\"uniform\""
statistic Network.Users[68] throughputStat:stats
field count 700
field mean 8.7128571428571
field stddev 119.66196597312
field min 0
field max 2322
field sum 6099
field sqrsum 10062111
attr "" ""
attr recordingmode stats
attr source throughput
attr title Throughput
statistic Network.Users[68] packetsReceivedStat:stats
field count 700
field mean 1.0728571428571
field stddev 14.568141121809
field min 0
field max 279
field sum 751
field sqrsum 149155
attr "" ""
attr recordingmode stats
attr source packetsReceived
attr title "Packets received per timeslot"
statistic Network.Users[68] packetDelayStat:stats
field count 751
field mean 47.109529840932
field stddev 16.270350802034
field min 0.00955909536
field max 65.78126211125
field sum 35379.25691054
field sqrsum 1865243.395593
attr "" ""
attr recordingmode stats
attr source packetDelay
attr title "Packet delay"
par Network.Users[69] typename "\"pecsn_project.User\""
par Network.Users[69] CQIdistribution "\"uniform\""
statistic Network.Users[69] throughputStat:stats
field count 700
field mean 0.78571428571429
field stddev 13.281256875066
field min 0
field max 269
field sum 550
field sqrsum 123730
attr "" ""
attr recordingmode stats
attr source throughput
attr title Throughput
statistic Network.Users[69] packetsReceivedStat:stats
field count 700
field mean 0.10142857142857
field stddev 1.6744305168301
field min 0
field max 34
field sum 71
field sqrsum 1967
attr "" ""
attr recordingmode stats
attr source packetsReceived
attr title "Packets received per timeslot"
statistic Network.Users[69] packetDelayStat:stats
field count 71
field mean 2.365445775737
field stddev 7.6905959651699
field min 0.127090437072
field max 65.991176572032
field sum 167.94665007732
field sqrsum 4537.4373349387
attr "" ""
attr recordingmode stats
attr source packetDelay
attr title "Packet delay"
par Network.Users[70] typename "\"pecsn_project.User\""
par Network.Users[70] CQIdistribution "\"uniform\""
statistic Network.Users[70] throughputStat:stats
field count 700
field mean 0.90571428571429
field stddev 23.962947588785
field min 0
field max 634
field sum 634
field sqrsum 401956
attr "" ""
attr recordingmode stats
attr source throughput
attr title Throughput
statistic Network.Users[70] packetsReceivedStat:stats
field count 700
field mean 0.10571428571429
field stddev 2.7969371002683
field min 0
field max 74
field sum 74
field sqrsum 5476
attr "" ""
attr recordingmode stats
attr source packetsReceived
attr title "Packets received per timeslot"
statistic Network.Users[70] packetDelayStat:stats
field count 74
field mean 1.4251009301033
field stddev 0.77086928979794
field min 0.002254072005
field max 2.752616856968
field sum 105.45746882764
field sqrsum 193.66701763522
attr "" ""
attr recordingmode stats
attr source packetDelay
attr title "Packet delay"
par Network.Users[71] typename "\"pecsn_project.User\""
par Network.Users[71] CQIdistribution "\"uniform\""
statistic Network.Users[71] throughputStat:stats
field count 700
field mean 18.994285714286
field stddev 187.58557027706
field min 0
field max 2323
field sum 13296
field sqrsum 24849202
attr "" ""
attr recordingmode stats
attr source throughput
attr title Throughput
statistic Network.Users[71] packetsReceivedStat:stats
field count 700
field mean 2.3857142857143
field stddev 23.524858466516
field min 0
field max 301
field sum 1670
field sqrsum 390824
attr "" ""
attr recordingmode stats
attr source packetsReceived
attr title "Packets received per timeslot"
statistic Network.Users[71] packetDelayStat:stats
field count 1670
field mean 35.474424900162
field stddev 18.307209601338
field min 2.731234254355
field max 68.66756843793
field sum 59242.28958327
field sqrsum 2660958.0508688
attr "" ""
attr recordingmode stats
attr source packetDelay
attr title "Packet delay"
par Network.Users[72] typename "\"pecsn_project.User\""
par Network.Users[72] CQIdistribution "\"uniform\""
statistic Network.Users[72] throughputStat:stats
field count 700
field mean 2.8428571428571
field stddev 49.817272893248
field min 0
field max 1245
field sum 1990
field sqrsum 1740408
attr "" ""
attr recordingmode stats
attr source throughput
attr title Throughput
statistic Network.Users[72] packetsReceivedStat:stats
field count 700
field mean 0.37142857142857
field stddev 6.4950105832868
field min 0
field max 161
field sum 260
field sqrsum 29584
attr "" ""
attr recordingmode stats
attr source packetsReceived
attr title "Packets received per timeslot"
statistic Network.Users[72] packetDelayStat:stats
field count 260
field mean 41.184289603137
field stddev 29.947570007467
field min 0.000372364625
field max 66.891213672015
field sum 10707.915296816
field sqrsum 673283.83451211
attr "" ""
attr recordingmode stats
attr source packetDelay
attr title "Packet delay"
par Network.Users[73] typename "\"pecsn_project.User\""
par Network.Users[73] CQIdistribution "\"uniform\""
statistic Network.Users[73] throughputStat:stats
field count 700
field mean 0.074285714285714
field stddev 1.965415259648
field min 0
field max 52
field sum 52
field sqrsum 2704
attr "" ""
attr recordingmode stats
attr source throughput
attr title Throughput
statistic Network.Users[73] packetsReceivedStat:stats
field count 700
field mean 0.011428571428571
field stddev 0.30237157840738
field min 0
field max 8
field sum 8
field sqrsum 64
attr "" ""
attr recordingmode stats
attr source packetsReceived
attr title "Packets received per timeslot"
statistic Network.Users[73] packetDelayStat:stats
field count 8
field mean 2.9232779614879
field stddev 0.060565588579559
field min 2.841607145815
field max 2.996979641925
field sum 23.386223691903
field sqrsum 68.390109654606
attr "" ""
attr recordingmode stats
attr source packetDelay
attr title "Packet delay"
par Network.Users[74] typename "\"pecsn_project.User\""
par Network.Users[74] CQIdistribution "\"uniform\""
statistic Network.Users[74] throughputStat:stats
field count 700
field mean 0.99857142857143
field stddev 17.217243517797
field min 0
field max 375
field sum 699
field sqrsum 207905
attr "" ""
attr recordingmode stats
attr source throughput
attr title Throughput
statistic Network.Users[74] packetsReceivedStat:stats
field count 700
field mean 0.11571428571429
field stddev 1.9984354190864
field min 0
field max 44
field sum 81
field sqrsum 2801
attr "" ""
attr recordingmode stats
attr source packetsReceived
attr title "Packets received per timeslot"
statistic Network.Users[74] packetDelayStat:stats
field count 81
field mean 1.5307527847882
field stddev 0.83685821158091
field min 0.052890612376
field max 2.986720962857
field sum 123.99097556784
field sqrsum 245.82606444231
attr "" ""
attr recordingmode stats
attr source packetDelay
attr title "Packet delay"
par Network.Users[75] typename "\"pecsn_project.User\""
par Network.Users[75] CQIdistribution "\"uniform\""
statistic Network.Users[75] throughputStat:stats
field count 700
field mean 0.68428571428571
field stddev 18.104498257142
field min 0
field max 479
field sum 479
field sqrsum 229441
attr "" ""
attr recordingmode stats
attr source throughput
attr title Throughput
statistic Network.Users[75] packetsReceivedStat:stats
field count 700
field mean 0.092857142857143
field stddev 2.45676907456
field min 0
field max 65
field sum 65
field sqrsum 4225
attr "" ""
attr recordingmode stats
attr source packetsReceived
attr title "Packets received per timeslot"
statistic Network.Users[75] packetDelayStat:stats
field count 65
field mean 1.471685896729
field stddev 0.83512970684811
field min 0.08104317684
field max 3.176998091317
field sum 95.659583287384
field sqrsum 185.41712375567
attr "" ""
attr recordingmode stats
attr source packetDelay
attr title "Packet delay"
par Network.Users[76] typename "\"pecsn_project.User\""
par Network.Users[76] CQIdistribution "\"uniform\""
statistic Network.Users[76] throughputStat:stats
field count 700
field mean 0.11571428571429
field stddev 3.0615122313747
field min 0
field max 81
field sum 81
field sqrsum 6561
attr "" ""
attr recordingmode stats
attr source throughput
attr title Throughput
statistic Network.Users[76] packetsReceivedStat:stats
field count 700
field mean 0.012857142857143
field stddev 0.3401680257083
field min 0
field max 9
field sum 9
field sqrsum 81
attr "" ""
attr recordingmode stats
attr source packetsReceived
attr title "Packets received per timeslot"
statistic Network.Users[76] packetDelayStat:stats
field count 9
field mean 2.885754374916
field stddev 0.12036050827598
field min 2.663918957106
field max 3.067275603155
field sum 25.971789374244
field sqrsum 75.064098026741
attr "" ""
attr recordingmode stats
attr source packetDelay
attr title "Packet delay"
par Network.Users[77] typename "\"pecsn_project.User\""
par Network.Users[77] CQIdistribution "\"uniform\""
statistic Network.Users[77] throughputStat:stats
field count 700
field mean 0.90571428571429
field stddev 23.55026211527
field min 0
field max 623
field sum 634
field sqrsum 388250
attr "" ""
attr recordingmode stats
attr source throughput
attr title Throughput
statistic Network.Users[77] packetsReceivedStat:stats
field count 700
[...]
par Network.PG[48] typename "\"pecsn_project.PacketGenerator\""
par Network.PG[48] NUM_USER 200
par Network.PG[48] LAMBDA 25
par Network.PG[49] typename "\"pecsn_project.PacketGenerator\""
par Network.PG[49] NUM_USER 200
par Network.PG[49] LAMBDA 25
par Network.PG[50] typename "\"pecsn_project.PacketGenerator\""
par Network.PG[50] NUM_USER 200
par Network.PG[50] LAMBDA 25
par Network.PG[51] typename "\"pecsn_project.PacketGenerator\""
par Network.PG[51] NUM_USER 200
par Network.PG[51] LAMBDA 25
par Network.PG[52] typename "\"pecsn_project.PacketGenerator\""
par Network.PG[52] NUM_USER 200
par Network.PG[52] LAMBDA 25
par Network.PG[53] typename "\"pecsn_project.PacketGenerator\""
par Network.PG[53] NUM_USER 200
par Network.PG[53] LAMBDA 25
par Network.PG[54] typename "\"pecsn_project.PacketGenerator\""
par Network.PG[54] NUM_USER 200
par Network.PG[54] LAMBDA 25
par Network.PG[55] typename "\"pecsn_project.PacketGenerator\""
par Network.PG[55] NUM_USER 200
par Network.PG[55] LAMBDA 25
par Network.PG[56] typename "\"pecsn_project.PacketGenerator\""
par Network.PG[56] NUM_USER 200
par Network.PG[56] LAMBDA 25
par Network.PG[57] typename "\"pecsn_project.PacketGenerator\""
par Network.PG[57] NUM_USER 200
par Network.PG[57] LAMBDA 25
par Network.PG[58] typename "\"pecsn_project.PacketGenerator\""
par Network.PG[58] NUM_USER 200
par Network.PG[58] LAMBDA 25
par Network.PG[59] typename "\"pecsn_project.PacketGenerator\""
par Network.PG[59] NUM_USER 200
par Network.PG[59] LAMBDA 25
par Network.PG[60] typename "\"pecsn_project.PacketGenerator\""
par Network.PG[60] NUM_USER 200
par Network.PG[60] LAMBDA 25
par Network.PG[61] typename "\"pecsn_project.PacketGenerator\""
par Network.PG[61] NUM_USER 200
par Network.PG[61] LAMBDA 25
par Network.PG[62] typename "\"pecsn_project.PacketGenerator\""
par Network.PG[62] NUM_USER 200
par Network.PG[62] LAMBDA 25
par Network.PG[63] typename "\"pecsn_project.PacketGenerator\""
par Network.PG[63] NUM_USER 200
par Network.PG[63] LAMBDA 25
par Network.PG[64] typename "\"pecsn_project.PacketGenerator\""
par Network.PG[64] NUM_USER 200
par Network.PG[64] LAMBDA 25
par Network.PG[65] typename "\"pecsn_project.PacketGenerator\""
par Network.PG[65] NUM_USER 200
par Network.PG[65] LAMBDA 25
par Network.PG[66] typename "\"pecsn_project.PacketGenerator\""
par Network.PG[66] NUM_USER 200
par Network.PG[66] LAMBDA 25
par Network.PG[67] typename "\"pecsn_project.PacketGenerator\""
par Network.PG[67] NUM_USER 200
par Network.PG[67] LAMBDA 25
par Network.PG[68] typename "\"pecsn_project.PacketGenerator\""
par Network.PG[68] NUM_USER 200
par Network.PG[68] LAMBDA 25
par Network.PG[69] typename "\"pecsn_project.PacketGenerator\""
par Network.PG[69] NUM_USER 200
par Network.PG[69] LAMBDA 25
par Network.PG[70] typename "\"pecsn_project.PacketGenerator\""
par Network.PG[70] NUM_USER 200
par Network.PG[70] LAMBDA 25
par Network.PG[71] typename "\"pecsn_project.PacketGenerator\""
par Network.PG[71] NUM_USER 200
par Network.PG[71] LAMBDA 25
par Network.PG[72] typename "\"pecsn_project.PacketGenerator\""
par Network.PG[72] NUM_USER 200
par Network.PG[72] LAMBDA 25
par Network.PG[73] typename "\"pecsn_project.PacketGenerator\""
par Network.PG[73] NUM_USER 200
par Network.PG[73] LAMBDA 25
par Network.PG[74] typename "\"pecsn_project.PacketGenerator\""
par Network.PG[74] NUM_USER 200
par Network.PG[74] LAMBDA 25
par Network.PG[75] typename "\"pecsn_project.PacketGenerator\""
par Network.PG[75] NUM_USER 200
par Network.PG[75] LAMBDA 25
par Network.PG[76] typename "\"pecsn_project.PacketGenerator\""
par Network.PG[76] NUM_USER 200
par Network.PG[76] LAMBDA 25
par Network.PG[77] typename "\"pecsn_project.PacketGenerator\""
par Network.PG[77] NUM_USER 200
par Network.PG[77] LAMBDA 25
par Network.PG[78] typename "\"pecsn_project.PacketGenerator\""
par Network.PG[78] NUM_USER 200
par Network.PG[78] LAMBDA 25
par Network.PG[79] typename "\"pecsn_project.PacketGenerator\""
par Network.PG[79] NUM_USER 200
par Network.PG[79] LAMBDA 25
par Network.PG[80] typename "\"pecsn_project.PacketGenerator\""
par Network.PG[80] NUM_USER 200
par Network.PG[80] LAMBDA 25
par Network.PG[81] typename "\"pecsn_project.PacketGenerator\""
par Network.PG[81] NUM_USER 200
par Network.PG[81] LAMBDA 25
par Network.PG[82] typename "\"pecsn_project.PacketGenerator\""
par Network.PG[82] NUM_USER 200
par Network.PG[82] LAMBDA 25
par Network.PG[83] typename "\"pecsn_project.PacketGenerator\""
par Network.PG[83] NUM_USER 200
par Network.PG[83] LAMBDA 25
par Network.PG[84] typename "\"pecsn_project.PacketGenerator\""
par Network.PG[84] NUM_USER 200
par Network.PG[84] LAMBDA 25
par Network.PG[85] typename "\"pecsn_project.PacketGenerator\""
par Network.PG[85] NUM_USER 200
par Network.PG[85] LAMBDA 25
par Network.PG[86] typename "\"pecsn_project.PacketGenerator\""
par Network.PG[86] NUM_USER 200
par Network.PG[86] LAMBDA 25
par Network.PG[87] typename "\"pecsn_project.PacketGenerator\""
par Network.PG[87] NUM_USER 200
par Network.PG[87] LAMBDA 25
par Network.PG[88] typename "\"pecsn_project.PacketGenerator\""
par Network.PG[88] NUM_USER 200
par Network.PG[88] LAMBDA 25
par Network.PG[89] typename "\"pecsn_project.PacketGenerator\""
par Network.PG[89] NUM_USER 200
par Network.PG[89] LAMBDA 25
par Network.PG[90] typename "\"pecsn_project.PacketGenerator\""
par Network.PG[90] NUM_USER 200
par Network.PG[90] LAMBDA 25
par Network.PG[91] typename "\"pecsn_project.PacketGenerator\""
par Network.PG[91] NUM_USER 200
par Network.PG[91] LAMBDA 25
par Network.PG[92] typename "\"pecsn_project.PacketGenerator\""
par Network.PG[92] NUM_USER 200
par Network.PG[92] LAMBDA 25
par Network.PG[93] typename "\"pecsn_project.PacketGenerator\""
par Network.PG[93] NUM_USER 200
par Network.PG[93] LAMBDA 25
par Network.PG[94] typename "\"pecsn_project.PacketGenerator\""
par Network.PG[94] NUM_USER 200
par Network.PG[94] LAMBDA 25
par Network.PG[95] typename "\"pecsn_project.PacketGenerator\""
par Network.PG[95] NUM_USER 200
par Network.PG[95] LAMBDA 25
par Network.PG[96] typename "\"pecsn_project.PacketGenerator\""
par Network.PG[96] NUM_USER 200
par Network.PG[96] LAMBDA 25
par Network.PG[97] typename "\"pecsn_project.PacketGenerator\""
par Network.PG[97] NUM_USER 200
par Network.PG[97] LAMBDA 25
par Network.PG[98] typename "\"pecsn_project.PacketGenerator\""
par Network.PG[98] NUM_USER 200
par Network.PG[98] LAMBDA 25
par Network.PG[99] typename "\"pecsn_project.PacketGenerator\""
par Network.PG[99] NUM_USER 200
par Network.PG[99] LAMBDA 25
par Network.PG[100] typename "\"pecsn_project.PacketGenerator\""
par Network.PG[100] NUM_USER 200
par Network.PG[100] LAMBDA 25
par Network.PG[101] typename "\"pecsn_project.PacketGenerator\""
par Network.PG[101] NUM_USER 200
par Network.PG[101] LAMBDA 25
par Network.PG[102] typename "\"pecsn_project.PacketGenerator\""
par Network.PG[102] NUM_USER 200
par Network.PG[102] LAMBDA 25
par Network.PG[103] typename "\"pecsn_project.PacketGenerator\""
par Network.PG[103] NUM_USER 200
par Network.PG[103] LAMBDA 25
par Network.PG[104] typename "\"pecsn_project.PacketGenerator\""
par Network.PG[104] NUM_USER 200
par Network.PG[104] LAMBDA 25
par Network.PG[105] typename "\"pecsn_project.PacketGenerator\""
par Network.PG[105] NUM_USER 200
par Network.PG[105] LAMBDA 25
par Network.PG[106] typename "\"pecsn_project.PacketGenerator\""
par Network.PG[106] NUM_USER 200
par Network.PG[106] LAMBDA 25
par Network.PG[107] typename "\"pecsn_project.PacketGenerator\""
par Network.PG[107] NUM_USER 200
par Network.PG[107] LAMBDA 25
par Network.PG[108] typename "\"pecsn_project.PacketGenerator\""
par Network.PG[108] NUM_USER 200
par Network.PG[108] LAMBDA 25
par Network.PG[109] typename "\"pecsn_project.PacketGenerator\""
par Network.PG[109] NUM_USER 200
par Network.PG[109] LAMBDA 25
par Network.PG[110] typename "\"pecsn_project.PacketGenerator\""
par Network.PG[110] NUM_USER 200
par Network.PG[110] LAMBDA 25
par Network.PG[111] typename "\"pecsn_project.PacketGenerator\""
par Network.PG[111] NUM_USER 200
par Network.PG[111] LAMBDA 25
par Network.PG[112] typename "\"pecsn_project.PacketGenerator\""
par Network.PG[112] NUM_USER 200
par Network.PG[112] LAMBDA 25
par Network.PG[113] typename "\"pecsn_project.PacketGenerator\""
par Network.PG[113] NUM_USER 200
par Network.PG[113] LAMBDA 25
par Network.PG[114] typename "\"pecsn_project.PacketGenerator\""
par Network.PG[114] NUM_USER 200
par Network.PG[114] LAMBDA 25
par Network.PG[115] typename "\"pecsn_project.PacketGenerator\""
par Network.PG[115] NUM_USER 200
par Network.PG[115] LAMBDA 25
par Network.PG[116] typename "\"pecsn_project.PacketGenerator\""
par Network.PG[116] NUM_USER 200
par Network.PG[116] LAMBDA 25
par Network.PG[117] typename "\"pecsn_project.PacketGenerator\""
par Network.PG[117] NUM_USER 200
par Network.PG[117] LAMBDA 25
par Network.PG[118] typename "\"pecsn_project.PacketGenerator\""
par Network.PG[118] NUM_USER 200
par Network.PG[118] LAMBDA 25
par Network.PG[119] typename "\"pecsn_project.PacketGenerator\""
par Network.PG[119] NUM_USER 200
par Network.PG[119] LAMBDA 25
par Network.PG[120] typename "\"pecsn_project.PacketGenerator\""
par Network.PG[120] NUM_USER 200
par Network.PG[120] LAMBDA 25
par Network.PG[121] typename "\"pecsn_project.PacketGenerator\""
par Network.PG[121] NUM_USER 200
par Network.PG[121] LAMBDA 25
par Network.PG[122] typename "\"pecsn_project.PacketGenerator\""
par Network.PG[122] NUM_USER 200
par Network.PG[122] LAMBDA 25
par Network.PG[123] typename "\"pecsn_project.PacketGenerator\""
par Network.PG[123] NUM_USER 200
par Network.PG[123] LAMBDA 25
par Network.PG[124] typename "\"pecsn_project.PacketGenerator\""
par Network.PG[124] NUM_USER 200
par Network.PG[124] LAMBDA 25
par Network.PG[125] typename "\"pecsn_project.PacketGenerator\""
par Network.PG[125] NUM_USER 200
par Network.PG[125] LAMBDA 25
par Network.PG[126] typename "\"pecsn_project.PacketGenerator\""
par Network.PG[126] NUM_USER 200
par Network.PG[126] LAMBDA 25
par Network.PG[127] typename "\"pecsn_project.PacketGenerator\""
par Network.PG[127] NUM_USER 200
par Network.PG[127] LAMBDA 25
par Network.PG[128] typename "\"pecsn_project.PacketGenerator\""
par Network.PG[128] NUM_USER 200
par Network.PG[128] LAMBDA 25
par Network.PG[129] typename "\"pecsn_project.PacketGenerator\""
par Network.PG[129] NUM_USER 200
par Network.PG[129] LAMBDA 25
par Network.PG[130] typename "\"pecsn_project.PacketGenerator\""
par Network.PG[130] NUM_USER 200
par Network.PG[130] LAMBDA 25
par Network.PG[131] typename "\"pecsn_project.PacketGenerator\""
par Network.PG[131] NUM_USER 200
par Network.PG[131] LAMBDA 25
par Network.PG[132] typename "\"pecsn_project.PacketGenerator\""
par Network.PG[132] NUM_USER 200
par Network.PG[132] LAMBDA 25
par Network.PG[133] typename "\"pecsn_project.PacketGenerator\""
par Network.PG[133] NUM_USER 200
par Network.PG[133] LAMBDA 25
par Network.PG[134] typename "\"pecsn_project.PacketGenerator\""
par Network.PG[134] NUM_USER 200
par Network.PG[134] LAMBDA 25
par Network.PG[135] typename "\"pecsn_project.PacketGenerator\""
par Network.PG[135] NUM_USER 200
par Network.PG[135] LAMBDA 25
par Network.PG[136] typename "\"pecsn_project.PacketGenerator\""
par Network.PG[136] NUM_USER 200
par Network.PG[136] LAMBDA 25
par Network.PG[137] typename "\"pecsn_project.PacketGenerator\""
par Network.PG[137] NUM_USER 200
par Network.PG[137] LAMBDA 25
par Network.PG[138] typename "\"pecsn_project.PacketGenerator\""
par Network.PG[138] NUM_USER 200
par Network.PG[138] LAMBDA 25
par Network.PG[139] typename "\"pecsn_project.PacketGenerator\""
par Network.PG[139] NUM_USER 200
par Network.PG[139] LAMBDA 25
par Network.PG[140] typename "\"pecsn_project.PacketGenerator\""
par Network.PG[140] NUM_USER 200
par Network.PG[140] LAMBDA 25
par Network.PG[141] typename "\"pecsn_project.PacketGenerator\""
par Network.PG[141] NUM_USER 200
par Network.PG[141] LAMBDA 25
par Network.PG[142] typename "\"pecsn_project.PacketGenerator\""
par Network.PG[142] NUM_USER 200
par Network.PG[142] LAMBDA 25
par Network.PG[143] typename "\"pecsn_project.PacketGenerator\""
par Network.PG[143] NUM_USER 200
par Network.PG[143] LAMBDA 25
par Network.PG[144] typename "\"pecsn_project.PacketGenerator\""
par Network.PG[144] NUM_USER 200
par Network.PG[144] LAMBDA 25
par Network.PG[145] typename "\"pecsn_project.PacketGenerator\""
par Network.PG[145] NUM_USER 200
par Network.PG[145] LAMBDA 25
par Network.PG[146] typename "\"pecsn_project.PacketGenerator\""
par Network.PG[146] NUM_USER 200
par Network.PG[146] LAMBDA 25
par Network.PG[147] typename "\"pecsn_project.PacketGenerator\""
par Network.PG[147] NUM_USER 200
par Network.PG[147] LAMBDA 25
par Network.PG[148] typename "\"pecsn_project.PacketGenerator\""
par Network.PG[148] NUM_USER 200
par Network.PG[148] LAMBDA 25
par Network.PG[149] typename "\"pecsn_project.PacketGenerator\""
par Network.PG[149] NUM_USER 200
par Network.PG[149] LAMBDA 25
par Network.PG[150] typename "\"pecsn_project.PacketGenerator\""
par Network.PG[150] NUM_USER 200
par Network.PG[150] LAMBDA 25
par Network.PG[151] typename "\"pecsn_project.PacketGenerator\""
par Network.PG[151] NUM_USER 200
par Network.PG[151] LAMBDA 25
par Network.PG[152] typename "\"pecsn_project.PacketGenerator\""
par Network.PG[152] NUM_USER 200
par Network.PG[152] LAMBDA 25
par Network.PG[153] typename "\"pecsn_project.PacketGenerator\""
par Network.PG[153] NUM_USER 200
par Network.PG[153] LAMBDA 25
par Network.PG[154] typename "\"pecsn_project.PacketGenerator\""
par Network.PG[154] NUM_USER 200
par Network.PG[154] LAMBDA 25
par Network.PG[155] typename "\"pecsn_project.PacketGenerator\""
par Network.PG[155] NUM_USER 200
par Network.PG[155] LAMBDA 25
par Network.PG[156] typename "\"pecsn_project.PacketGenerator\""
par Network.PG[156] NUM_USER 200
par Network.PG[156] LAMBDA 25
par Network.PG[157] typename "\"pecsn_project.PacketGenerator\""
par Network.PG[157] NUM_USER 200
par Network.PG[157] LAMBDA 25
par Network.PG[158] typename "\"pecsn_project.PacketGenerator\""
par Network.PG[158] NUM_USER 200
par Network.PG[158] LAMBDA 25
par Network.PG[159] typename "\"pecsn_project.PacketGenerator\""
par Network.PG[159] NUM_USER 200
par Network.PG[159] LAMBDA 25
par Network.PG[160] typename "\"pecsn_project.PacketGenerator\""
par Network.PG[160] NUM_USER 200
par Network.PG[160] LAMBDA 25
par Network.PG[161] typename "\"pecsn_project.PacketGenerator\""
par Network.PG[161] NUM_USER 200
par Network.PG[161] LAMBDA 25
par Network.PG[162] typename "\"pecsn_project.PacketGenerator\""
par Network.PG[162] NUM_USER 200
par Network.PG[162] LAMBDA 25
par Network.PG[163] typename "\"pecsn_project.PacketGenerator\""
par Network.PG[163] NUM_USER 200
par Network.PG[163] LAMBDA 25
par Network.PG[164] typename "\"pecsn_project.PacketGenerator\""
par Network.PG[164] NUM_USER 200
par Network.PG[164] LAMBDA 25
par Network.PG[165] typename "\"pecsn_project.PacketGenerator\""
par Network.PG[165] NUM_USER 200
par Network.PG[165] LAMBDA 25
par Network.PG[166] typename "\"pecsn_project.PacketGenerator\""
par Network.PG[166] NUM_USER 200
par Network.PG[166] LAMBDA 25
par Network.PG[167] typename "\"pecsn_project.PacketGenerator\""
par Network.PG[167] NUM_USER 200
par Network.PG[167] LAMBDA 25
par Network.PG[168] typename "\"pecsn_project.PacketGenerator\""
par Network.PG[168] NUM_USER 200
par Network.PG[168] LAMBDA 25
par Network.PG[169] typename "\"pecsn_project.PacketGenerator\""
par Network.PG[169] NUM_USER 200
par Network.PG[169] LAMBDA 25
par Network.PG[170] typename "\"pecsn_project.PacketGenerator\""
par Network.PG[170] NUM_USER 200
par Network.PG[170] LAMBDA 25
par Network.PG[171] typename "\"pecsn_project.PacketGenerator\""
par Network.PG[171] NUM_USER 200
par Network.PG[171] LAMBDA 25
par Network.PG[172] typename "\"pecsn_project.PacketGenerator\""
par Network.PG[172] NUM_USER 200
par Network.PG[172] LAMBDA 25
par Network.PG[173] typename "\"pecsn_project.PacketGenerator\""
par Network.PG[173] NUM_USER 200
par Network.PG[173] LAMBDA 25
par Network.PG[174] typename "\"pecsn_project.PacketGenerator\""
par Network.PG[174] NUM_USER 200
par Network.PG[174] LAMBDA 25
par Network.PG[175] typename "\"pecsn_project.PacketGenerator\""
par Network.PG[175] NUM_USER 200
par Network.PG[175] LAMBDA 25
par Network.PG[176] typename "\"pecsn_project.PacketGenerator\""
par Network.PG[176] NUM_USER 200
par Network.PG[176] LAMBDA 25
par Network.PG[177] typename "\"pecsn_project.PacketGenerator\""
par Network.PG[177] NUM_USER 200
par Network.PG[177] LAMBDA 25
par Network.PG[178] typename "\"pecsn_project.PacketGenerator\""
par Network.PG[178] NUM_USER 200
par Network.PG[178] LAMBDA 25
par Network.PG[179] typename "\"pecsn_project.PacketGenerator\""
par Network.PG[179] NUM_USER 200
par Network.PG[179] LAMBDA 25
par Network.PG[180] typename "\"pecsn_project.PacketGenerator\""
par Network.PG[180] NUM_USER 200
par Network.PG[180] LAMBDA 25
par Network.PG[181] typename "\"pecsn_project.PacketGenerator\""
par Network.PG[181] NUM_USER 200
par Network.PG[181] LAMBDA 25
par Network.PG[182] typename "\"pecsn_project.PacketGenerator\""
par Network.PG[182] NUM_USER 200
par Network.PG[182] LAMBDA 25
par Network.PG[183] typename "\"pecsn_project.PacketGenerator\""
par Network.PG[183] NUM_USER 200
par Network.PG[183] LAMBDA 25
par Network.PG[184] typename "\"pecsn_project.PacketGenerator\""
par Network.PG[184] NUM_USER 200
par Network.PG[184] LAMBDA 25
par Network.PG[185] typename "\"pecsn_project.PacketGenerator\""
par Network.PG[185] NUM_USER 200
par Network.PG[185] LAMBDA 25
par Network.PG[186] typename "\"pecsn_project.PacketGenerator\""
par Network.PG[186] NUM_USER 200
par Network.PG[186] LAMBDA 25
par Network.PG[187] typename "\"pecsn_project.PacketGenerator\""
par Network.PG[187] NUM_USER 200
par Network.PG[187] LAMBDA 25
par Network.PG[188] typename "\"pecsn_project.PacketGenerator\""
par Network.PG[188] NUM_USER 200
par Network.PG[188] LAMBDA 25
par Network.PG[189] typename "\"pecsn_project.PacketGenerator\""
par Network.PG[189] NUM_USER 200
par Network.PG[189] LAMBDA 25
par Network.PG[190] typename "\"pecsn_project.PacketGenerator\""
par Network.PG[190] NUM_USER 200
par Network.PG[190] LAMBDA 25
par Network.PG[191] typename "\"pecsn_project.PacketGenerator\""
par Network.PG[191] NUM_USER 200
par Network.PG[191] LAMBDA 25
par Network.PG[192] typename "\"pecsn_project.PacketGenerator\""
par Network.PG[192] NUM_USER 200
par Network.PG[192] LAMBDA 25
par Network.PG[193] typename "\"pecsn_project.PacketGenerator\""
par Network.PG[193] NUM_USER 200
par Network.PG[193] LAMBDA 25
par Network.PG[194] typename "\"pecsn_project.PacketGenerator\""
par Network.PG[194] NUM_USER 200
par Network.PG[194] LAMBDA 25
par Network.PG[195] typename "\"pecsn_project.PacketGenerator\""
par Network.PG[195] NUM_USER 200
par Network.PG[195] LAMBDA 25
par Network.PG[196] typename "\"pecsn_project.PacketGenerator\""
par Network.PG[196] NUM_USER 200
par Network.PG[196] LAMBDA 25
par Network.PG[197] typename "\"pecsn_project.PacketGenerator\""
par Network.PG[197] NUM_USER 200
par Network.PG[197] LAMBDA 25
par Network.PG[198] typename "\"pecsn_project.PacketGenerator\""
par Network.PG[198] NUM_USER 200
par Network.PG[198] LAMBDA 25
par Network.PG[199] typename "\"pecsn_project.PacketGenerator\""
par Network.PG[199] NUM_USER 200
par Network.PG[199] LAMBDA 25
par Network typename "\"pecsn_project.simulations.Network\""
par Network NUM_USER 200
par Network lambda 10
par Network CQIRngMultiplier 0
par Network PktSizeRngMultiplier 1
par Network PktGenerationRngMultiplier 2

